47
Generated by autodE on: 2022-05-31. E = -999.549609 Ha. Imaginary frequency = -369.1 cm-1
C    -2.58758  -0.68683  -2.48546
C    -1.44059   0.23104  -2.13060
C    -1.27281   1.35236  -3.13374
N     0.17778  -1.09128  -3.01170
N     1.06715  -0.97037  -2.12091
C     1.20278  -0.61037  -0.96241
C     1.92824  -1.05233   0.20602
C     1.89710  -0.29545   1.39263
C     2.54844  -0.75766   2.53615
C     3.24357  -1.97073   2.50897
C     3.28310  -2.72871   1.33187
C     2.62438  -2.28075   0.18933
C    -0.96682   0.41437  -0.81937
C    -1.29820  -0.52131   0.29834
C    -1.52570  -0.06325   1.61072
C    -1.74905  -0.95195   2.66767
C    -1.74687  -2.33084   2.45050
C    -1.50765  -2.80833   1.15589
C    -1.28288  -1.92213   0.10434
C    -0.60724   1.83248  -0.43924
C     0.68694   2.37177  -0.48097
C     0.92766   3.70758  -0.13993
C    -0.12537   4.53819   0.25016
C    -1.42555   4.02302   0.28410
C    -1.65967   2.69092  -0.06375
H    -3.50253  -0.07171  -2.57601
H    -2.43093  -1.17511  -3.45839
H    -2.78781  -1.46249  -1.73975
H    -1.39718   0.97568  -4.16031
H    -0.29251   1.84099  -3.05879
H    -2.04062   2.13165  -2.97641
H     0.53103  -0.77833  -3.92689
H     1.35160   0.64673   1.41397
H     2.51282  -0.16712   3.45421
H     3.75402  -2.32884   3.40602
H     3.82391  -3.67758   1.30898
H     2.63882  -2.87331  -0.72741
H    -1.51525   1.00606   1.81976
H    -1.91913  -0.55551   3.67211
H    -1.91465  -3.02548   3.27683
H    -1.47655  -3.88435   0.96583
H    -1.04561  -2.32367  -0.88103
H     1.51636   1.73978  -0.79871
H     1.94734   4.09865  -0.18286
H     0.06299   5.58049   0.51870
H    -2.26223   4.66224   0.57730
H    -2.68032   2.30077  -0.04579
