13
Generated by autodE on: 2022-05-30. E = -5454.682432 Ha
Br    1.33151  -1.50592   0.71315
C    -0.19255  -0.77839  -0.07697
C    -0.44904   0.47441  -0.47193
Br    0.61377   2.00481  -0.39545
C    -1.95190   0.46731  -0.85444
C    -2.74884   0.29435   0.46091
C    -2.49314  -0.95623   0.85369
C    -1.54352  -1.52466  -0.22798
O    -2.04990  -0.86021  -1.39839
H    -2.28124   1.23719  -1.55972
H    -3.33222   1.07648   0.94491
H    -2.80799  -1.48834   1.75040
H    -1.49034  -2.61147  -0.34982
