15
Generated by autodE on: 2022-07-26. E = -396.254385 Ha
C    -2.98403   2.25370  -0.51026
C    -1.85025   1.49503  -0.01995
N    -0.94727   0.89480   0.39386
N     0.03278   0.26670   0.93000
C     0.71652  -0.54323   0.03100
O     0.43371  -0.67497  -1.17077
N     1.76462  -1.18374   0.61108
C     2.52817  -2.18524  -0.09913
H    -2.72901   3.32124  -0.59907
H    -3.27431   1.87225  -1.50159
H    -3.83855   2.13914   0.17497
H     1.85731  -1.11333   1.61801
H     2.83840  -1.80797  -1.08465
H     1.96008  -3.11919  -0.26123
H     3.42986  -2.42663   0.47873
