15
Generated by autodE on: 2022-05-30. E = -396.252892 Ha
C     3.37773   1.47509  -0.29559
C     2.03231   1.01137  -0.02095
N     0.95608   0.65053   0.21788
N    -0.23218   0.30417   0.55373
C    -0.79038  -0.62199  -0.31665
O    -0.22057  -1.08772  -1.31874
N    -2.05406  -0.98192   0.02866
C    -2.75982  -0.53597   1.21237
H     4.03539   1.26773   0.56298
H     3.37696   2.55662  -0.50265
H     3.76963   0.94541  -1.17784
H    -2.47412  -1.69521  -0.55584
H    -3.76709  -0.97275   1.20369
H    -2.86098   0.56006   1.23755
H    -2.25609  -0.84827   2.14236
