28
Generated by autodE on: 2022-05-30. E = -5850.928628 Ha. Imaginary frequency = -363.2 cm-1
C     4.50190  -0.93339  -0.90343
N     3.55947  -0.15780  -0.12445
C     2.79448   0.80400  -0.69952
O     2.98716   1.24631  -1.83541
N     1.77186   1.21921   0.16543
N     0.96719   2.08067  -0.32156
C    -0.15810   2.33845  -0.62044
C    -1.15564   3.34338  -0.97438
C    -1.03104   0.20786  -0.32231
Br   -2.52408   0.59448   0.78000
C    -1.22434  -0.14139  -1.82313
C    -1.68940  -1.61238  -1.89218
C    -0.62338  -2.33066  -1.52523
C     0.47945  -1.28699  -1.23829
O     0.15363  -0.27504  -2.20444
C     0.05139  -0.55571   0.05280
Br    0.37492  -1.32091   1.73726
H     5.14009  -0.26685  -1.50019
H     3.99934  -1.63359  -1.59443
H     5.14037  -1.51210  -0.22353
H     3.22704  -0.53806   0.75621
H    -1.80627   2.97284  -1.77989
H    -0.65501   4.26752  -1.30197
H    -1.78293   3.56682  -0.09782
H    -1.75458   0.59454  -2.43664
H    -2.69834  -1.93925  -2.14033
H    -0.52025  -3.40565  -1.38336
H     1.52226  -1.61117  -1.30901
