20
Generated by autodE on: 2022-06-17. E = -457.715324 Ha
C     3.07259  -0.80689   0.07663
N     1.82438  -0.06458   0.13801
C     1.85633   1.33175   0.24060
C     0.74511   2.08493   0.22895
C    -0.64247   1.50566   0.10254
C    -0.57602  -0.00718  -0.02969
C    -1.79614  -0.81534  -0.18470
N    -2.96699  -0.12989  -0.19725
O    -1.78878  -2.05764  -0.30333
C     0.61365  -0.67200  -0.00816
H     3.71530  -0.55601   0.93481
H     2.85769  -1.88244   0.10534
H     3.62935  -0.58407  -0.84931
H     2.85510   1.76241   0.33338
H     0.85094   3.16852   0.31834
H    -1.25959   1.80040   0.97636
H    -1.16403   1.95631  -0.76650
H    -3.01437   0.87520  -0.08921
H    -3.83261  -0.64889  -0.29550
H     0.63235  -1.75844  -0.10786
