15
Generated by autodE on: 2022-06-17. E = -400.137216 Ha
C     2.73213  -0.60930   0.03084
C     1.28639  -0.31682   0.01962
N     0.28399  -1.14376   0.22710
C    -0.94359  -0.48093   0.13325
C    -2.26170  -1.14211   0.31967
C    -0.65923   0.84883  -0.15381
O    -1.28881   1.89314  -0.34822
O     0.80808   0.89419  -0.21569
H     2.90046  -1.67262   0.24604
H     3.23865   0.00021   0.79660
H     3.17954  -0.36156  -0.94531
H     0.40131  -2.13508   0.43020
H    -3.05403  -0.38973   0.19557
H    -2.37460  -1.58605   1.32445
H    -2.44179  -1.94414  -0.41775
