39
Generated by autodE on: 2022-05-29. E = -1026.533919 Ha
C     4.14922   0.10286   1.78414
O     2.99717  -0.47160   1.15301
C     1.94938   0.34736   0.96797
O     1.90150   1.51973   1.32193
N     0.94824  -0.27309   0.30194
N     0.86147  -1.72327   0.15718
N    -0.07951  -1.91225  -0.89932
C     0.53867  -1.75315  -2.22659
C    -1.12747  -0.93299  -0.58047
C    -1.79757  -0.45333  -1.79125
N    -2.37877  -0.04307  -2.70695
C    -2.23396  -1.34936   0.44337
C    -1.62771  -2.02924   1.68383
C    -0.92348  -0.85632   2.42573
C    -1.21285   0.36033   1.52565
C    -2.62619   0.02903   1.00560
C    -0.38360   0.26907   0.21558
C    -0.37608   1.59986  -0.53945
O    -1.07605   2.54424  -0.24522
O     0.44544   1.58302  -1.58338
C     0.45021   2.74943  -2.42172
H     3.89658   0.47066   2.78895
H     4.88683  -0.70508   1.85342
H     4.54976   0.92945   1.17951
H     1.77658  -2.04778  -0.16614
H    -0.20304  -1.97605  -3.00352
H     0.95263  -0.74562  -2.39483
H     1.34249  -2.49710  -2.31276
H    -3.02585  -1.92801  -0.04794
H    -0.94715  -2.84801   1.42926
H    -2.45175  -2.44395   2.28267
H    -1.37152  -0.68085   3.41400
H     0.14943  -1.03170   2.57629
H    -1.08642   1.33008   2.01811
H    -2.99898   0.73445   0.25016
H    -3.36508  -0.04755   1.81562
H    -0.54798   2.90210  -2.85659
H     1.18407   2.54931  -3.21019
H     0.74236   3.63544  -1.84114
