15
Generated by autodE on: 2022-05-29. E = -433.382313 Ha
C    -3.47114   0.25027   0.46441
N    -2.43079   0.08001  -0.52342
N    -1.27199   0.06700  -0.05122
N    -0.18839  -0.07492  -0.77432
C     0.92224  -0.04789   0.03878
O     0.93495   0.08689   1.26045
O     2.03163  -0.19224  -0.69797
C     3.27252  -0.18737   0.01533
H    -3.08914   0.35120   1.49446
H    -4.15465  -0.61146   0.41188
H    -4.06204   1.14282   0.20636
H    -1.11271   0.17347   0.98138
H     4.05667  -0.30687  -0.74177
H     3.31263  -1.02001   0.73332
H     3.41016   0.76256   0.55287
