39
Generated by autodE on: 2022-05-29. E = -1026.470449 Ha. Imaginary frequency = -321.3 cm-1
C     3.87656   0.03295   2.29805
O     2.93047  -0.52023   1.36685
C     1.99479   0.31339   0.90461
O     1.89773   1.48871   1.20204
N     1.13433  -0.28979   0.00246
N     1.10796  -1.62368  -0.05338
N     0.58547  -2.25153  -1.02782
C     0.72375  -1.67445  -2.34481
C    -1.49499  -0.62782  -0.49279
C    -1.95802  -0.57669  -1.81485
N    -2.36229  -0.58633  -2.91464
C    -2.41344  -1.12757   0.63198
C    -1.60543  -1.98239   1.63966
C    -0.70449  -0.92170   2.33816
C    -1.04154   0.38716   1.58604
C    -2.56933   0.20010   1.41440
C    -0.59732   0.32984   0.10436
C    -0.45153   1.66867  -0.56936
O    -0.83073   2.70772  -0.06624
O     0.05505   1.58699  -1.79609
C     0.12149   2.80413  -2.55481
H     3.35740   0.40111   3.19401
H     4.55187  -0.78953   2.55896
H     4.43708   0.85336   1.82858
H     1.15174  -2.14647   0.83115
H    -0.11847  -2.00080  -2.96543
H     0.81410  -0.58350  -2.36824
H     1.63524  -2.12826  -2.77648
H    -3.32981  -1.60373   0.26368
H    -1.04241  -2.78262   1.14203
H    -2.28717  -2.45771   2.35967
H    -1.00228  -0.78824   3.38753
H     0.36353  -1.17614   2.36684
H    -0.70296   1.29658   2.09087
H    -3.03907   0.99660   0.82075
H    -3.09431   0.09354   2.37758
H    -0.88412   3.22925  -2.68235
H     0.54544   2.52862  -3.52696
H     0.76915   3.53365  -2.04828
