54
Generated by autodE on: 2022-06-24. E = -1169.146602 Ha
C     5.34417   0.19488  -1.11547
C     4.01334   0.07630  -1.29690
C     3.42361  -0.29064  -2.63354
C     3.09945   0.29529  -0.16987
C     1.76039   0.20850  -0.23763
C     0.85591   0.36433   0.95149
C     0.18963  -0.98586   1.38053
C     0.09949  -1.18214   2.89059
C     0.96476  -2.17485   0.77748
O     1.95059  -2.64033   1.36499
N     0.52919  -2.62526  -0.40489
C     1.31358  -3.57362  -1.16962
O    -1.13412  -0.94687   0.82183
C    -1.50955   0.31850   0.31231
C    -2.85337   0.73955   0.93610
O    -3.42383   1.78275   0.57635
N    -3.33757  -0.07710   1.87116
C    -4.56037   0.21031   2.59397
C    -1.65411   0.16575  -1.22936
O    -1.02209  -0.71571  -1.83089
N    -2.45696   1.02377  -1.85786
C    -2.57988   1.03588  -3.30200
C    -0.35245   1.33340   0.71047
C    -0.67609   2.09255   2.01017
C    -0.06547   2.38355  -0.36748
H     5.76038   0.45799  -0.13809
H     6.04986   0.03136  -1.93484
H     2.83752  -1.22217  -2.56275
H     2.73043   0.48945  -2.98963
H     4.20760  -0.42960  -3.39122
H     3.56809   0.53305   0.79246
H     1.28069  -0.03724  -1.18584
H     1.45437   0.73909   1.79200
H    -0.42496  -0.34695   3.36863
H    -0.44693  -2.11182   3.11157
H     1.10661  -1.26124   3.31910
H    -0.17444  -2.05208  -0.88599
H     0.83191  -3.73127  -2.14283
H     1.38507  -4.54257  -0.65151
H     2.34041  -3.20607  -1.33530
H    -2.77136  -0.88753   2.10535
H    -4.85921  -0.68157   3.15789
H    -5.36570   0.48000   1.89521
H    -4.42520   1.04723   3.29868
H    -2.95308   1.70173  -1.27723
H    -2.90735   0.05512  -3.67972
H    -3.31950   1.79312  -3.58869
H    -1.61690   1.27939  -3.77974
H    -0.96886   1.43036   2.83340
H     0.21625   2.65098   2.32893
H    -1.48857   2.81299   1.84994
H     0.78802   3.00215  -0.05230
H    -0.93525   3.04383  -0.49471
H     0.18177   1.94965  -1.34465
