23
Generated by autodE on: 2022-06-24. E = -351.521385 Ha
C     3.62877   0.02193   1.06245
C     2.56529  -0.20104   0.25932
C     2.72998  -0.82105  -1.10467
C     1.22263   0.16094   0.70904
C     0.07801  -0.00929   0.00078
C    -1.23003   0.36839   0.49590
C    -2.41763   0.23201  -0.14645
C    -3.69816   0.67561   0.50258
C    -2.57693  -0.35185  -1.52155
H     3.50566   0.47211   2.05236
H     4.64416  -0.23927   0.75156
H     2.15568  -1.75884  -1.18674
H     2.35141  -0.15085  -1.89431
H     3.78549  -1.04263  -1.31648
H     1.15664   0.60679   1.70885
H     0.13520  -0.45264  -0.99705
H    -1.24632   0.81086   1.49933
H    -4.20755   1.43602  -0.11642
H    -3.53242   1.09702   1.50494
H    -4.40537  -0.16873   0.59076
H    -3.04757   0.38463  -2.19674
H    -1.63228  -0.67721  -1.97595
H    -3.26051  -1.21869  -1.49148
