31
Generated by autodE on: 2022-06-24. E = -817.531985 Ha
C     4.00572  -1.32387  -1.53473
N     2.76899  -0.80479  -0.98713
C     2.77252   0.07784   0.02885
O     3.80662   0.52113   0.54453
C     1.43652   0.51887   0.52860
C     1.30211   1.47544   1.63014
O     0.44300  -0.13169   0.02109
C    -0.89045   0.03027   0.19487
C    -1.66107  -1.18048  -0.08427
O    -2.91072  -1.19730  -0.00353
N    -0.97018  -2.30114  -0.39945
C    -1.64741  -3.55022  -0.67785
C    -1.44089   1.38505   0.21233
O    -0.73687   2.37455  -0.07350
N    -2.76100   1.49354   0.50646
C    -3.46735   2.73452   0.26663
H     3.76823  -2.03594  -2.33372
H     4.59704  -1.83861  -0.76101
H     4.62683  -0.51452  -1.95112
H     1.88299  -1.09583  -1.38764
H     0.49021   1.12946   2.29745
H     0.99142   2.47209   1.27367
H     2.25636   1.54932   2.16496
H     0.04208  -2.27076  -0.42992
H    -2.24864  -3.88384   0.18356
H    -0.89487  -4.31735  -0.89773
H    -2.32368  -3.46258  -1.54361
H    -3.27215   0.60788   0.50159
H    -4.49055   2.64347   0.65331
H    -2.97168   3.56870   0.78414
H    -3.52067   2.99131  -0.80669
