31
Generated by autodE on: 2022-07-27. E = -817.525248 Ha
C     4.61471  -1.94448   0.07154
N     3.35719  -1.67643   0.74149
C     2.35494  -1.03473   0.11674
O     2.44591  -0.63989  -1.05836
C     1.11013  -0.81723   0.91562
C     0.93424  -1.27500   2.31452
O     0.24205  -0.19056   0.21882
C    -0.93229   0.37948   0.01346
C    -1.96659   0.44727   1.05559
O    -1.81284  -0.03776   2.19388
N    -3.10809   1.07628   0.70280
C    -4.20537   1.22039   1.63215
C    -1.04748   0.92663  -1.35192
O    -2.08305   1.50917  -1.75012
N     0.02149   0.76670  -2.15923
C     0.00949   1.26107  -3.51864
H     4.45782  -2.54934  -0.83534
H     5.27098  -2.49330   0.75702
H     5.11330  -1.00889  -0.22830
H     3.24518  -1.97315   1.70479
H    -0.07103  -1.02429   2.66470
H     1.09478  -2.36528   2.37989
H     1.68528  -0.79735   2.96854
H    -3.14877   1.44337  -0.25166
H    -4.57507   0.24167   1.98060
H    -3.91218   1.79880   2.52435
H    -5.02793   1.74596   1.13109
H     0.85360   0.28734  -1.80494
H    -0.79190   0.79493  -4.11560
H    -0.14251   2.35249  -3.55490
H     0.97393   1.02719  -3.98674
