36
Generated by autodE on: 2022-10-20. E = -1322.168505 Ha
C    -3.95440  -1.34194  -0.37154
O    -2.67900  -1.26711   0.26576
C    -1.73555  -0.46961  -0.36714
N    -1.29296  -1.09848  -1.62157
O     0.08401  -0.78336  -1.74685
C     0.69678  -0.86306  -0.43739
C     1.00440  -2.33437  -0.14698
C     1.96066  -0.02240  -0.45756
C     2.29006   0.77648  -1.55990
C     3.44446   1.56608  -1.54155
C     4.27670   1.57486  -0.41974
C     3.94770   0.78602   0.68781
C     2.80061  -0.00967   0.66779
C    -0.41926  -0.25851   0.48442
Cl   -0.44649  -1.01070   2.11405
C    -0.40373   1.30060   0.60255
C    -1.57152   1.71521   1.48926
C    -2.66654   1.55091   0.73817
C    -2.16129   1.02468  -0.59449
O    -0.87420   1.65370  -0.70302
H    -4.46408  -0.36467  -0.37926
H    -4.55460  -2.04808   0.21728
H    -3.87464  -1.71433  -1.40519
H    -1.34629  -2.11128  -1.45905
H     1.53006  -2.46867   0.80523
H     1.64257  -2.71259  -0.95872
H     0.08226  -2.93265  -0.10814
H     1.63836   0.78490  -2.43231
H     3.69061   2.18047  -2.41106
H     5.17628   2.19476  -0.40588
H     4.58720   0.78956   1.57372
H     2.54769  -0.60703   1.54551
H     0.57705   1.73534   0.81370
H    -1.49346   2.00338   2.53646
H    -3.71325   1.66895   1.01649
H    -2.76448   1.19055  -1.49232
