19
Generated by autodE on: 2022-10-20. E = -440.340926 Ha
C    -2.11578  -1.39889   0.17553
C    -1.26333  -0.21748  -0.06328
O    -1.85199   0.87639  -0.41796
N    -3.20705   0.93132  -0.56408
C     0.18542  -0.14056   0.05614
C     0.94465  -1.26674   0.44110
C     2.33274  -1.18399   0.55303
C     2.99504   0.01748   0.28539
C     2.25315   1.14326  -0.09750
C     0.86886   1.07001  -0.21168
H    -1.55032  -2.28781   0.46954
H    -2.86488  -1.15195   0.94987
H    -2.70396  -1.60817  -0.73657
H    -3.30182   1.91705  -0.84156
H     0.45105  -2.21475   0.65541
H     2.90051  -2.06801   0.85224
H     4.08200   0.07901   0.37396
H     2.76188   2.08679  -0.30876
H     0.30054   1.95164  -0.51027
