17
Generated by autodE on: 2022-10-20. E = -881.716876 Ha
C     2.58805  -1.15881  -0.39910
O     1.35518  -1.59337   0.18310
C     0.37095  -0.70150   0.31872
C     0.17427   0.60077   0.03770
Cl    1.13700   1.79581  -0.76517
C    -1.31508   0.84935   0.37490
C    -2.16743   0.07375  -0.65858
C    -1.96558  -1.21478  -0.36772
C    -1.00071  -1.19424   0.84061
O    -1.45477  -0.01180   1.52134
H     3.25554  -2.02951  -0.39053
H     2.43300  -0.82115  -1.43466
H     3.03338  -0.34535   0.19340
H    -1.59160   1.88730   0.59002
H    -2.74184   0.52707  -1.46573
H    -2.32436  -2.11260  -0.86939
H    -0.96774  -2.07643   1.48952
