26
Generated by autodE on: 2022-05-26. E = -1095.666384 Ha
C     4.91136  -0.07916   0.29640
N     3.48409  -0.28933   0.13267
C     2.58943   0.28764   0.93693
O     2.83643   1.05128   1.86752
C     1.13658  -0.01252   0.60019
O     0.41291  -0.37018   1.83107
C    -0.67554  -1.05090   1.40234
O    -1.53487  -1.51218   2.09039
C    -0.51656  -1.05804  -0.15862
C    -1.17991  -2.14134  -0.85799
N    -1.71134  -3.02246  -1.38836
O     0.91429  -1.13540  -0.21516
C    -0.76640   0.40951  -0.56376
C    -2.04349   0.89771  -1.15982
F    -2.42513   0.12673  -2.19646
F    -1.94254   2.15515  -1.60856
F    -3.04870   0.86546  -0.26355
C     0.28391   1.08791  -0.07263
C     0.63804   2.52100   0.00564
H     5.41875  -0.32120  -0.64526
H     5.32294  -0.71519   1.09667
H     5.10616   0.97072   0.55379
H     3.15643  -0.94089  -0.57507
H     0.77535   2.79682   1.06379
H     1.60797   2.68969  -0.49106
H    -0.12203   3.16385  -0.44999
