16
Generated by autodE on: 2022-05-26. E = -641.693430 Ha
C    -3.98265   0.97062  -0.03969
N    -2.53650   0.84356  -0.06987
C    -1.94821  -0.33373   0.15956
O    -2.51014  -1.39352   0.41399
C    -0.44529  -0.31023   0.09054
O     0.26556  -1.35220   0.30659
C     1.72822  -0.95927   0.14927
O     2.57955  -1.78614   0.30845
C     1.59528   0.39893  -0.16788
C     2.56015   1.37163  -0.43372
N     3.38426   2.16924  -0.65247
O     0.24006   0.74530  -0.19162
H    -4.24644   2.02257  -0.19443
H    -4.44595   0.36056  -0.83074
H    -4.38013   0.63486   0.92996
H    -1.96740   1.66059  -0.27668
