45
Generated by autodE on: 2022-06-08. E = -1419.806881 Ha
C    -2.91716  -0.81699   3.33961
O    -2.54559  -0.10496   2.14464
C    -1.55946  -0.61675   1.41819
O    -0.96273  -1.63739   1.69330
C    -1.19936   0.32877   0.24673
C    -2.38912   1.26141   0.00288
O    -3.42548   0.85651  -0.47461
O    -2.15740   2.49992   0.40198
C    -3.21589   3.45427   0.19811
N     0.02548   1.01958   0.65350
N     1.05485   0.12865   0.25079
C     2.33618   0.27646   0.81001
C     3.48622   0.00401   0.05056
C     4.74728   0.07442   0.64916
C     4.88090   0.44797   1.98810
C     3.73329   0.75136   2.73107
C     2.46730   0.66603   2.15422
C     0.76996  -0.48138  -0.98331
F     1.24856   0.28569  -2.07348
C     1.33653  -1.91720  -1.20003
C     1.43986  -2.82721  -0.02217
O     1.62527  -2.23669  -2.33293
C    -0.80434  -0.45350  -1.05127
F    -1.32024  -1.73099  -1.05989
C    -1.21352   0.25897  -2.36657
C    -1.43092  -0.62362  -3.54930
O    -1.30904   1.46771  -2.37461
H    -3.73955  -0.24527   3.78289
H    -3.24686  -1.83361   3.08470
H    -2.06309  -0.86401   4.02955
H    -3.44852   3.52918  -0.87331
H    -2.83501   4.40866   0.57721
H    -4.11236   3.14773   0.75472
H     0.10075   1.89145   0.11691
H     3.40572  -0.24367  -1.00774
H     5.63270  -0.14869   0.04932
H     5.86934   0.51226   2.44776
H     3.82263   1.05104   3.77804
H     1.57374   0.89220   2.73518
H     2.17734  -2.43456   0.69490
H     0.47766  -2.86485   0.50639
H     1.74693  -3.82404  -0.36205
H    -2.32350  -1.24542  -3.37170
H    -1.57038  -0.01157  -4.44876
H    -0.57540  -1.30741  -3.66561
