29
Generated by autodE on: 2022-07-27. E = -837.151683 Ha
C    -3.50532  -2.94262  -0.01812
O    -2.96798  -1.62841  -0.19860
C    -1.64524  -1.49626   0.00193
O    -0.93973  -2.44167   0.31961
C    -1.15855  -0.13249  -0.19712
N     0.16102   0.15921  -0.04201
N     1.14011  -0.60611   0.21936
C     2.38800   0.00415   0.38568
C     3.49639  -0.86312   0.33563
C     4.78867  -0.36383   0.48284
C     4.99289   1.00356   0.69806
C     3.89290   1.86748   0.77176
C     2.59646   1.37947   0.62263
C    -1.90895   1.08203  -0.54389
O    -1.34723   2.16965  -0.66696
O    -3.21980   0.92950  -0.70984
C    -3.96558   2.10954  -1.04078
H    -4.57841  -2.85856  -0.22722
H    -3.03931  -3.65489  -0.71500
H    -3.34792  -3.29165   1.01321
H     0.31135   1.17859  -0.19001
H     3.31723  -1.92664   0.16825
H     5.64108  -1.04489   0.43268
H     6.00497   1.39535   0.82019
H     4.04592   2.93238   0.96072
H     1.75702   2.07167   0.71884
H    -5.00797   1.78487  -1.13780
H    -3.87432   2.86105  -0.24329
H    -3.61098   2.53823  -1.98916
