29
Generated by autodE on: 2022-06-08. E = -837.151494 Ha
C    -2.36757  -2.93628   2.87350
O    -2.22444  -1.66323   2.22747
C    -1.13953  -1.49800   1.47549
O    -0.29310  -2.37792   1.32698
C    -1.01514  -0.19033   0.81784
N     0.11160  -0.15287   0.05812
N     0.62008   0.78496  -0.63145
C     1.76621   0.45999  -1.36564
C     2.55066   1.55182  -1.78439
C     3.71954   1.34034  -2.51208
C     4.11205   0.03994  -2.84859
C     3.32078  -1.04767  -2.45882
C     2.15138  -0.84914  -1.72690
C    -1.97889   0.90306   0.94155
O    -2.97341   0.87651   1.65086
O    -1.67035   1.96683   0.18287
C    -2.57468   3.07511   0.24552
H    -1.52203  -3.12341   3.55101
H    -3.30300  -2.87799   3.44178
H    -2.42505  -3.74346   2.12896
H     0.59383  -1.07387   0.11799
H     2.22867   2.55880  -1.51317
H     4.32637   2.19430  -2.82109
H     5.02453  -0.12663  -3.42507
H     3.60953  -2.06252  -2.74134
H     1.53260  -1.71438  -1.47632
H    -3.57915   2.77852  -0.09085
H    -2.63900   3.46835   1.27074
H    -2.16135   3.83702  -0.42592
