45
Generated by autodE on: 2022-06-08. E = -1419.757480 Ha. Imaginary frequency = -393.7 cm-1
C    -3.56698  -2.36733   1.47205
O    -2.95524  -1.18877   0.92344
C    -1.75119  -0.87571   1.38277
O    -1.17857  -1.48795   2.25694
C    -1.15922   0.33116   0.68388
C    -2.00150   1.56173   0.43327
O    -1.54507   2.68220   0.55686
O    -3.22630   1.29642   0.02036
C    -4.03056   2.41686  -0.38930
N     0.09596   0.71289   1.10529
N     1.06096  -0.17637   0.96388
C     2.37635   0.29358   1.14053
C     3.35984  -0.69911   1.30594
C     4.70033  -0.34637   1.44832
C     5.07538   1.00065   1.42815
C     4.10110   1.99213   1.26190
C     2.75806   1.64945   1.11411
C     0.74954  -0.38617  -1.12326
F     1.15517   0.83852  -1.49445
C     1.76352  -1.43848  -1.34783
C     1.45732  -2.85911  -0.97284
O     2.85975  -1.09087  -1.77283
C    -0.68289  -0.53351  -1.09259
F    -1.07303  -1.83109  -0.94462
C    -1.54083   0.20547  -2.09470
C    -2.66428  -0.58470  -2.69465
O    -1.32241   1.37552  -2.35491
H    -3.69518  -2.26347   2.55842
H    -2.94663  -3.24869   1.25490
H    -4.54098  -2.45475   0.97829
H    -3.54669   2.93143  -1.23104
H    -4.16808   3.11421   0.44824
H    -4.99185   1.99301  -0.69897
H     0.28292   1.71495   0.97342
H     3.04999  -1.74486   1.32725
H     5.45426  -1.12558   1.57872
H     6.12512   1.27996   1.54179
H     4.39058   3.04509   1.24291
H     2.02904   2.44976   0.97588
H     2.39367  -3.43151  -0.98732
H     0.74978  -3.29608  -1.69463
H     0.98892  -2.91062   0.01989
H    -3.32974  -0.93869  -1.89184
H    -2.27573  -1.47639  -3.21138
H    -3.21945   0.05187  -3.39451
