24
Generated by autodE on: 2022-06-22. E = -705.244898 Ha
C    -2.44639  -2.97934   0.57566
O    -1.31494  -2.11104   0.41963
C    -1.57546  -0.84475   0.08536
O    -2.71202  -0.41493  -0.06868
C    -0.38194  -0.00433  -0.04920
O    -0.56542   1.28296  -0.23701
C    -1.60327   2.07592  -0.34710
C    -1.30883   3.43713  -0.51789
N    -1.10451   4.58063  -0.66219
C     1.02354  -0.39621   0.04268
C     1.46205  -1.72149  -0.17199
C     2.81801  -2.03890  -0.09649
C     3.76704  -1.05340   0.19010
C     3.34596   0.26551   0.39733
C     1.99508   0.59296   0.32462
H    -3.01680  -3.04129  -0.36225
H    -2.03536  -3.96103   0.83681
H    -3.10197  -2.61404   1.37925
H    -2.61541   1.68283  -0.30535
H     0.74260  -2.49978  -0.41405
H     3.13493  -3.06968  -0.27131
H     4.82722  -1.30932   0.25037
H     4.07671   1.04546   0.62341
H     1.67930   1.62272   0.49602
