47
Generated by autodE on: 2022-06-22. E = -1056.778430 Ha. Imaginary frequency = -131.6 cm-1
C     1.75121   0.21956   2.54850
O     0.62150   0.67091   1.78914
C    -0.11510  -0.27118   1.18385
O     0.20601  -1.45557   1.17750
C    -1.31027   0.25027   0.53194
C    -1.98377   1.52265   0.76915
C    -2.97222   1.95491  -0.14766
C    -3.64089   3.16193   0.03563
C    -3.34351   3.97762   1.13375
C    -2.37190   3.56256   2.04922
C    -1.69983   2.35253   1.87680
O    -1.96431  -0.54539  -0.30651
C    -1.55364  -1.61023  -0.95797
C    -2.46920  -2.13902  -1.88830
N    -3.18740  -2.59158  -2.69175
C    -0.02043  -0.33054  -2.51333
C     0.67732   0.58437  -1.77242
C     0.23948   2.02744  -1.71138
C     1.94705   0.27787  -1.12016
C     2.47300  -0.95821  -0.92004
C     3.73256  -1.18287  -0.24816
C     4.28717  -2.38318   0.06366
C     3.66267  -3.71201  -0.24986
C     5.60470  -2.45578   0.78058
H     1.42012  -0.41565   3.38337
H     2.44990  -0.34312   1.91630
H     2.23269   1.12598   2.93312
H    -3.20503   1.33671  -1.01483
H    -4.39553   3.47368  -0.69032
H    -3.86463   4.92736   1.27347
H    -2.13546   4.18459   2.91575
H    -0.95807   2.04466   2.60955
H    -0.69937  -2.18281  -0.60815
H    -0.91576  -0.02663  -3.05865
H     0.39188  -1.31177  -2.75269
H     0.33160   2.43732  -0.69418
H     0.88777   2.64011  -2.36318
H    -0.79806   2.15533  -2.04861
H     2.50068   1.13914  -0.72942
H     1.91489  -1.83235  -1.26568
H     4.28049  -0.28045   0.04732
H     2.70449  -3.63682  -0.77934
H     4.34961  -4.32261  -0.86186
H     3.49562  -4.28084   0.68192
H     6.34301  -3.02273   0.18550
H     5.49909  -3.00164   1.73532
H     6.01846  -1.45912   0.99266
