34
Generated by autodE on: 2022-05-29. E = -993.999032 Ha
C    -4.40865   1.01955  -0.98067
N    -3.17727   0.64770  -0.31627
C    -2.33637  -0.28404  -0.76692
O    -2.47549  -0.95662  -1.78849
C    -1.09252  -0.51329   0.15713
C    -1.35596  -1.77561   0.85674
N    -1.56918  -2.77376   1.40768
N    -0.93002   0.57753   1.12269
C    -0.09325   1.57428   0.45429
C     0.65233   2.42482   1.46744
C     1.21493   3.72057   0.96795
O     0.78740   2.03915   2.61670
C     0.86642   0.82217  -0.51573
C     2.23647   0.38593   0.10045
C     3.04971  -0.25960  -1.01577
C     2.45108  -1.43971  -1.17742
F     2.66260  -2.38468  -2.08850
C     1.30570  -1.51893  -0.18385
O     1.83960  -0.75027   0.90010
C     0.19436  -0.57142  -0.72646
H    -4.43684   2.10425  -1.16266
H    -4.46895   0.49403  -1.94145
H    -5.28428   0.74585  -0.37105
H    -2.89371   1.10323   0.55094
H    -0.41630   0.24378   1.94084
H    -0.72432   2.24022  -0.15402
H     1.70273   3.58417  -0.00971
H     0.37952   4.42448   0.81265
H     1.91890   4.14210   1.69689
H     1.00898   1.38777  -1.44245
H     2.75439   1.13105   0.71311
H     3.84359   0.20699  -1.59560
H     0.98986  -2.52019   0.12716
H    -0.06906  -0.81024  -1.76132
