21
Generated by autodE on: 2022-07-26. E = -587.127321 Ha
C    -2.81079  -0.94814  -2.81108
N    -1.98224  -1.22477  -1.65653
C    -1.10544  -0.33076  -1.14387
O    -0.93699   0.80389  -1.61720
C    -0.33977  -0.78155   0.03568
C    -0.50147  -2.07597   0.57711
N    -0.66004  -3.15395   0.99936
N     0.55494   0.02857   0.64795
C     0.96495   1.26472   0.43823
C     1.97763   1.75235   1.37593
C     2.46761   3.15486   1.17180
O     2.38892   1.01997   2.28080
H    -2.60842  -1.66414  -3.62334
H    -2.59224   0.06386  -3.17036
H    -3.88041  -1.00964  -2.55469
H    -2.07385  -2.13474  -1.21592
H     1.04016  -0.38197   1.46468
H     0.55656   1.84648  -0.38088
H     2.90012   3.25583   0.16265
H     1.62049   3.85835   1.22715
H     3.21886   3.41109   1.92955
