13
Generated by autodE on: 2022-05-29. E = -406.788331 Ha
F     0.24652   2.30504   0.03061
C    -0.13231   1.03327  -0.05565
C    -1.24459   0.43483   0.36572
C    -0.96088  -1.05329   0.04831
C     0.16054  -1.54222   0.99945
C     1.26478  -0.91430   0.58678
C     0.79893  -0.05747  -0.61675
O    -0.20114  -0.92549  -1.17897
H    -2.10842   0.83433   0.89226
H    -1.83304  -1.70424  -0.07584
H     0.01510  -2.21207   1.84645
H     2.27373  -0.92340   0.99720
H     1.55141   0.26291  -1.34568
