34
Generated by autodE on: 2022-05-29. E = -993.918450 Ha. Imaginary frequency = -324.8 cm-1
C    -4.12810  -0.40122  -2.13987
N    -3.18361  -0.77315  -1.10477
C    -2.46310   0.16091  -0.44939
O    -2.60445   1.37179  -0.66976
C    -1.47728  -0.34499   0.54418
C    -1.52949  -1.70204   0.95334
N    -1.54690  -2.83359   1.23773
N    -0.81619   0.50542   1.38068
C    -0.30348   1.68810   1.00849
C     0.67895   2.27946   1.93055
C     1.17859   3.65178   1.59016
O     1.08861   1.63657   2.89706
C     0.99351   0.90432  -0.69950
C     2.24392   0.34730   0.02599
C     3.17044  -0.28541  -1.03354
C     2.48925  -1.36832  -1.40756
F     2.75614  -2.26606  -2.35123
C     1.18204  -1.39874  -0.60000
O     1.66455  -0.83335   0.63124
C     0.31821  -0.23088  -1.11432
H    -4.59983  -1.31143  -2.52916
H    -4.91283   0.26269  -1.74459
H    -3.62808   0.12249  -2.97059
H    -3.03665  -1.75772  -0.90942
H    -0.28040   0.06548   2.13535
H    -0.84884   2.29474   0.29575
H     1.53579   3.67610   0.54811
H     0.34666   4.37223   1.65997
H     1.98521   3.94545   2.27375
H     0.97840   1.86940  -1.20365
H     2.72863   0.98305   0.77338
H     4.10251   0.12833  -1.41207
H     0.71084  -2.37776  -0.46342
H    -0.35668  -0.31464  -1.96367
