21
Generated by autodE on: 2022-06-04. E = -590.918789 Ha
C     3.64212   0.03041  -0.90152
C     2.60452   1.11055  -0.83162
O     2.78689   2.29275  -1.07508
C     1.29456   0.65514  -0.41422
N     0.22817   0.29786  -0.09316
C    -0.89916  -0.29712   0.27332
C    -2.08525   0.53791   0.48797
C    -1.91865   2.02429   0.27570
O    -3.16537   0.05659   0.82662
C    -0.77309  -1.76226   0.41228
C    -1.97813  -2.55940   0.82650
O     0.30898  -2.30562   0.18724
H     3.19288  -0.97250  -0.91279
H     4.28643   0.11924  -0.01008
H     4.26520   0.19034  -1.79385
H    -1.58105   2.23557  -0.75154
H    -1.15582   2.43013   0.95971
H    -2.87835   2.52384   0.45822
H    -1.69389  -3.61829   0.88647
H    -2.79600  -2.42651   0.10264
H    -2.35951  -2.21108   1.79758
