49
Generated by autodE on: 2022-06-21. E = -1129.254351 Ha
C     0.45782   1.26854  -2.79236
C     0.00433   0.06777  -2.40815
C    -0.77491  -0.82395  -3.33357
C     0.22049  -0.48863  -1.00989
C     1.60875  -0.14225  -0.40182
C     2.41144  -1.32923   0.04284
C     3.75288  -1.43195   0.00627
C     4.67803  -0.35417  -0.48760
C     4.43882  -2.67326   0.50732
C     1.27539   0.87548   0.78164
C     2.14252   2.06578   0.69207
N     2.82499   2.99712   0.59019
C     1.51619   0.24877   2.11045
N     1.63955  -0.22409   3.16200
N    -0.11241   1.23453   0.55918
C    -0.81058   0.06361   0.03064
C    -1.05174  -0.99254   1.13933
O    -0.87201  -2.18656   1.02504
O    -1.50036  -0.41455   2.25056
C    -1.72559  -1.26417   3.38709
C    -2.17757   0.43675  -0.53842
C    -3.16174  -0.54820  -0.71430
C    -4.39957  -0.22340  -1.27350
C    -4.67021   1.09104  -1.66540
C    -3.69423   2.07607  -1.49160
C    -2.45506   1.75152  -0.93230
H     0.26362   1.64261  -3.80185
H     1.02743   1.92286  -2.12768
H    -0.24670  -1.78278  -3.47657
H    -1.75930  -1.07237  -2.90492
H    -0.93022  -0.35776  -4.31723
H     0.09962  -1.57697  -1.04969
H     2.18069   0.43228  -1.13404
H     1.83365  -2.15970   0.46072
H     5.28129   0.03418   0.35145
H     4.16053   0.49809  -0.94731
H     5.39303  -0.76635  -1.21962
H     3.72294  -3.41989   0.88074
H     5.14200  -2.42469   1.32150
H     5.04307  -3.13464  -0.29330
H    -0.56645   1.64637   1.37417
H    -0.78306  -1.74190   3.68975
H    -2.09386  -0.60905   4.18430
H    -2.47257  -2.03332   3.14566
H    -2.96186  -1.58149  -0.42433
H    -5.15367  -1.00283  -1.40450
H    -5.63840   1.34632  -2.10246
H    -3.89523   3.10665  -1.79376
H    -1.69579   2.52167  -0.80408
