23
Generated by autodE on: 2022-06-21. E = -351.521379 Ha
C     3.08232  -1.10751  -1.88920
C     1.82141  -1.17833  -1.40856
C     0.93543  -2.36130  -1.70477
C     1.29310  -0.09346  -0.58389
C     0.05000  -0.04305  -0.04252
C    -0.42230   1.06078   0.76833
C    -1.64544   1.18886   1.34214
C    -2.74759   0.17433   1.22712
C    -1.98777   2.40217   2.15979
H     3.50301  -1.90446  -2.50871
H     3.72322  -0.24731  -1.67224
H     0.01583  -2.04822  -2.22659
H     1.45409  -3.10002  -2.33196
H     0.61466  -2.86020  -0.77515
H     1.97740   0.74330  -0.39870
H    -0.63884  -0.87308  -0.22182
H     0.29711   1.87337   0.92657
H    -3.05167  -0.17466   2.22984
H    -3.64563   0.63535   0.77914
H    -2.47856  -0.70402   0.62647
H    -2.27131   2.11412   3.18813
H    -2.86511   2.92410   1.73702
H    -1.15227   3.11533   2.21589
