26
Generated by autodE on: 2022-06-21. E = -777.704498 Ha
C    -0.48430   4.22924   0.05845
O    -0.06138   2.85554   0.08738
C    -0.98780   1.93940  -0.15270
O    -2.15609   2.18282  -0.41141
C    -0.46111   0.55061  -0.09428
N    -1.38960  -0.34074  -0.37958
C    -1.42585  -1.70740  -0.36035
C    -2.60296  -2.34127  -0.81636
N    -3.56812  -2.88096  -1.19219
C    -0.38191  -2.50856   0.14821
N     0.43373  -3.23017   0.56906
C     0.94286   0.22474   0.18742
C     1.55758   0.67570   1.36923
C     2.89373   0.36817   1.62161
C     3.63230  -0.37436   0.69330
C     3.03055  -0.81091  -0.49072
C     1.69076  -0.51798  -0.74426
H     0.40639   4.82065   0.29709
H    -1.27133   4.39986   0.80654
H    -0.86150   4.48831  -0.94101
H    -2.28216   0.10767  -0.63966
H     0.97969   1.25610   2.09001
H     3.36200   0.70980   2.54727
H     4.68015  -0.61014   0.89266
H     3.60619  -1.38383  -1.22081
H     1.22136  -0.85766  -1.66975
