34
Generated by autodE on: 2022-06-17. E = -728.373233 Ha
C     4.18066   1.73213   1.80405
O     3.16876   1.43031   0.83676
C     2.77304   0.14956   0.78484
O     3.21643  -0.74165   1.49831
N     1.80602  -0.07478  -0.14491
C     1.26903  -1.41257  -0.42928
C     0.15403  -1.10694  -1.47442
C     0.28649  -1.98164  -2.72978
C    -1.23021  -1.26413  -0.87580
C    -1.97857  -0.27497  -0.35024
C    -3.29155  -0.48490   0.23814
C    -4.09766   0.45571   0.78644
C    -5.43538   0.08237   1.36166
C    -3.75926   1.91726   0.87869
C     0.46312   0.34628  -1.77257
N     1.35240   0.88683  -1.02642
H     4.37796   2.80631   1.70555
H     5.09890   1.16168   1.60076
H     3.82895   1.50660   2.82153
H     0.88463  -1.87935   0.48613
H     2.05971  -2.05588  -0.84644
H    -0.47170  -1.70278  -3.47761
H     1.28353  -1.87016  -3.18203
H     0.13885  -3.04171  -2.46995
H    -1.61385  -2.29185  -0.86488
H    -1.58295   0.74566  -0.35853
H    -3.65229  -1.52052   0.23010
H    -5.49552   0.36503   2.42799
H    -5.63942  -0.99501   1.27553
H    -6.24723   0.63331   0.85375
H    -3.76457   2.24452   1.93340
H    -4.53038   2.52037   0.36773
H    -2.78342   2.17380   0.44673
H    -0.03623   0.93133  -2.54807
