11
Generated by autodE on: 2022-06-17. E = -376.764214 Ha
C    -2.44104   1.06741   0.30432
N    -1.68790   0.20232   0.14351
N    -0.95926  -0.82800  -0.03627
C     0.39713  -0.61024  -0.10395
O     1.19576  -1.51717  -0.27372
O     0.75836   0.68238   0.03281
C     2.16015   0.96314  -0.03118
H    -3.14823   1.87327   0.45327
H     2.57379   0.66086  -1.00463
H     2.25772   2.04792   0.09744
H     2.69920   0.43902   0.77179
