23
Generated by autodE on: 2022-06-17. E = -351.521386 Ha
C     2.69218   1.57541   2.13747
C     1.45852   1.13197   1.81011
C     0.30205   1.25429   2.76914
C     1.22590   0.51878   0.50397
C     0.03948   0.03489   0.05777
C    -0.13794  -0.56432  -1.24918
C    -1.28625  -1.07049  -1.76577
C    -2.60306  -1.09386  -1.04290
C    -1.31353  -1.66165  -3.14688
H     2.89407   2.03781   3.10769
H     3.52979   1.48499   1.43893
H    -0.51569   1.85070   2.33151
H    -0.12332   0.26513   3.00707
H     0.61298   1.73163   3.70908
H     2.09871   0.45428  -0.15691
H    -0.83500   0.09567   0.71132
H     0.76032  -0.60597  -1.87707
H    -2.55950  -0.66635  -0.03294
H    -2.97583  -2.13021  -0.96188
H    -3.36504  -0.53937  -1.61881
H    -1.64376  -2.71558  -3.11513
H    -0.32975  -1.61972  -3.63701
H    -2.04457  -1.13270  -3.78455
