34
Generated by autodE on: 2022-06-17. E = -728.269574 Ha. Imaginary frequency = -416.3 cm-1
C    -2.03998  -1.76766  -3.70798
O    -1.09086  -1.95007  -2.65187
C     0.19785  -1.69852  -2.95930
O     0.56605  -1.32709  -4.06312
N     1.07949  -1.88160  -1.92021
C     1.94039   0.25442  -1.16079
C     1.61578   0.27916   0.18534
C     2.68968   0.01215   1.22372
C     0.39217   0.99065   0.59695
C     0.08177   1.36969   1.85951
C    -1.14216   2.06897   2.20169
C    -1.52989   2.48925   3.43151
C    -2.83975   3.20095   3.62436
C    -0.72682   2.29602   4.68707
C     0.61445  -1.69563   0.35622
N     0.58291  -2.14203  -0.75660
H    -3.01766  -2.02548  -3.28317
H    -1.81169  -2.43010  -4.55599
H    -2.04272  -0.72317  -4.05282
H     2.93279  -0.05262  -1.49252
H     1.28934   0.71817  -1.90437
H     2.29414  -0.48460   2.12227
H     3.48824  -0.61748   0.80615
H     3.13934   0.96352   1.55571
H    -0.31439   1.21602  -0.21066
H     0.78329   1.14175   2.66653
H    -1.81900   2.27161   1.36261
H    -3.48227   2.65401   4.33792
H    -3.39172   3.31870   2.68019
H    -2.68173   4.20266   4.06328
H    -0.51470   3.27144   5.15973
H     0.22888   1.78073   4.52560
H    -1.30730   1.71803   5.42802
H     0.35174  -1.92878   1.38668
