43
Generated by autodE on: 2022-06-19. E = -867.264618 Ha
C     0.88000  -2.78260  -0.14109
C     0.06940  -1.69915   0.51429
O    -0.63602  -1.95610   1.47858
C     0.07325  -0.27054  -0.09002
C     1.47982   0.31549  -0.08427
C     2.42868  -0.09073   0.86465
C     3.69856   0.49197   0.89972
C     4.03795   1.49314  -0.01439
C     3.09547   1.90872  -0.96056
C     1.82730   1.32447  -0.99395
C    -0.94534   0.61962   0.70018
C    -0.87999   0.45234   2.19769
O     0.11079   0.73817   2.84959
C    -2.33115   0.43531  -0.00389
C    -3.40791  -0.25806   0.83902
C    -2.84766   1.82271  -0.41099
C    -1.98039  -0.46234  -1.23172
C    -2.79107  -0.20772  -2.49366
N    -0.54307  -0.26494  -1.42065
C     0.07277  -0.98637  -2.51816
H     0.21747  -3.33397  -0.82935
H     1.22113  -3.48849   0.62906
H     1.73023  -2.39975  -0.71573
H     2.17977  -0.86221   1.59615
H     4.42400   0.16094   1.64659
H     5.03116   1.94771   0.01059
H     3.34854   2.69279  -1.67841
H     1.09471   1.65085  -1.73265
H    -0.60703   1.65108   0.52566
H    -1.80484   0.12681   2.71737
H    -3.74720   0.37593   1.67237
H    -3.05677  -1.21478   1.24989
H    -4.28641  -0.46320   0.20631
H    -2.15731   2.32670  -1.10407
H    -3.83688   1.76525  -0.88927
H    -2.94600   2.45785   0.48408
H    -2.17699  -1.51626  -0.93468
H    -2.57177   0.77725  -2.93151
H    -2.58954  -0.97507  -3.25563
H    -3.86574  -0.25243  -2.26148
H     1.16566  -0.90327  -2.46067
H    -0.23999  -0.54612  -3.47709
H    -0.19035  -2.06167  -2.54814
