14
Generated by autodE on: 2022-06-19. E = -270.683219 Ha
C    -1.07419  -0.63362   0.98490
C    -0.72805   0.48044   0.03890
C    -1.77837   1.52670  -0.16167
C     0.46157   0.56488  -0.61745
C     1.56061  -0.38327  -0.51457
O     1.58458  -1.41031   0.15984
H    -0.32125  -0.72513   1.78297
H    -1.07663  -1.60323   0.46093
H    -2.06248  -0.47580   1.43889
H    -1.47043   2.30703  -0.87114
H    -2.71084   1.05726  -0.52174
H    -2.03025   1.99615   0.80561
H     0.63594   1.41114  -1.28837
H     2.45381  -0.11205  -1.12826
