29
Generated by autodE on: 2022-07-27. E = -596.535412 Ha
C    -2.98791  -1.85286  -1.86927
C    -1.93503  -1.61231  -0.85502
N    -1.26487  -0.50133  -0.75957
C    -1.50819   0.57453  -1.73743
C    -0.44590  -0.21600   0.38000
C    -0.99769  -0.53698   1.64637
C    -0.20352  -0.23510   2.90880
O    -2.13094  -1.07625   1.80544
C     0.85091   0.40044   0.08023
C     1.56334  -0.00088  -1.07645
C     2.79306   0.56543  -1.41167
C     3.36634   1.54954  -0.59876
C     2.67442   1.97018   0.54222
C     1.43451   1.41874   0.86950
H    -2.55746  -1.84901  -2.88650
H    -3.75570  -1.06127  -1.84761
H    -3.46610  -2.82487  -1.69682
H    -1.67478  -2.39233  -0.14098
H    -2.53940   0.93893  -1.62129
H    -0.81261   1.39588  -1.54861
H    -1.37190   0.20171  -2.76063
H    -0.50395  -0.96524   3.67434
H    -0.44887   0.76860   3.29392
H     0.88397  -0.28494   2.76628
H     1.14408  -0.78044  -1.71693
H     3.31383   0.22617  -2.31109
H     4.33269   1.98933  -0.85602
H     3.09456   2.75465   1.17731
H     0.89807   1.80619   1.73499
