43
Generated by autodE on: 2022-06-19. E = -867.215346 Ha. Imaginary frequency = -295.8 cm-1
C     1.18395  -1.45572   2.17661
C     0.33069  -1.54937   0.92492
O    -0.49096  -2.47862   0.85677
C     0.54774  -0.57117  -0.14272
C     1.79989   0.23095  -0.15879
C     3.05237  -0.39924  -0.04188
C     4.23386   0.34435  -0.06155
C     4.18700   1.73430  -0.20558
C     2.94961   2.37304  -0.33672
C     1.76889   1.62951  -0.31520
C    -1.51323   0.87554   0.99255
C    -1.56328   0.15251   2.22529
O    -2.31295  -0.79166   2.52608
C    -2.41095   0.78231  -0.09526
C    -3.80152   0.20664   0.11043
C    -2.36709   1.93166  -1.08013
C    -1.58106  -0.84654  -1.19426
C    -2.36685  -1.03618  -2.45505
N    -0.24744  -0.54187  -1.25847
C     0.26525   0.02942  -2.51558
H     2.02706  -2.16129   2.10091
H     1.58816  -0.45470   2.36686
H     0.55983  -1.77636   3.02270
H     3.10032  -1.48552   0.05239
H     5.19560  -0.16610   0.02870
H     5.11089   2.31720  -0.22038
H     2.90220   3.45817  -0.45441
H     0.81063   2.13817  -0.42465
H    -0.73773   1.64109   0.95261
H    -0.81315   0.50175   2.97410
H    -3.78343  -0.78095   0.58361
H    -4.37474   0.87978   0.77160
H    -4.34730   0.14451  -0.84125
H    -2.98064   2.76487  -0.69310
H    -2.78508   1.65644  -2.05910
H    -1.34556   2.31173  -1.22385
H    -1.82124  -1.52680  -0.38554
H    -2.37101  -0.15407  -3.11069
H    -1.96036  -1.88372  -3.03527
H    -3.40482  -1.28528  -2.20271
H    -0.09724   1.05454  -2.66604
H     1.35737   0.02975  -2.50149
H    -0.07116  -0.59525  -3.35125
