19
Generated by autodE on: 2022-05-30. E = -565.022390 Ha
C    -2.94053  -1.22592   0.08445
N    -2.79432  -0.92236  -1.32822
C    -1.72578  -0.37369  -1.92536
O    -1.61916  -0.12361  -3.12644
C    -0.60699  -0.06017  -1.03617
N     0.36456   0.23708  -0.46284
N     1.41666   0.56241   0.14221
C     1.36033   0.29590   1.52570
O     0.37992  -0.20395   2.09143
N     2.49296   0.64576   2.16841
C     3.67202   1.22741   1.55369
H    -3.11970  -2.30133   0.23243
H    -2.02702  -0.95058   0.62845
H    -3.78258  -0.66498   0.51691
H    -3.56984  -1.13803  -1.95249
H     2.49676   0.46470   3.16650
H     3.44939   2.19250   1.07323
H     4.42046   1.39673   2.33807
H     4.10999   0.56033   0.79528
