19
Generated by autodE on: 2022-07-26. E = -565.024913 Ha
C    -2.29839   1.79935   0.96755
N    -3.10111   0.68125   0.50508
C    -2.65173  -0.44811  -0.06339
O    -3.34936  -1.38522  -0.45410
C    -1.20052  -0.53717  -0.21440
N    -0.06820  -0.76990  -0.37872
N     1.14608  -1.02935  -0.56333
C     2.00533  -0.00434  -0.10948
O     1.61866   1.04572   0.41496
N     3.30081  -0.30906  -0.31244
C     4.36367   0.60481   0.04900
H    -2.46200   1.97521   2.04120
H    -2.55449   2.71681   0.41649
H    -1.23166   1.58995   0.81174
H    -4.11305   0.73633   0.60682
H     3.52010  -1.18384  -0.77589
H     5.32806   0.11468  -0.13198
H     4.30435   0.88191   1.11316
H     4.32482   1.53317  -0.54497
