30
Generated by autodE on: 2022-06-17. E = -763.117761 Ha
C     3.76957   0.05090   0.68242
O     2.47674   0.40018   0.15749
C     1.41713   0.05994   0.88502
O     1.47396  -0.52418   1.94277
C     0.11594   0.50968   0.19058
C     0.22289   2.03866   0.04117
C    -0.01755   2.64295  -1.30268
O     0.49147   2.68923   1.03541
N     0.04807  -0.19621  -1.10533
C    -0.75308  -1.18350  -0.95222
C    -1.01270  -2.09182  -2.03944
N    -1.25200  -2.84550  -2.89013
C    -1.38074  -1.35816   0.41506
C    -2.80200  -1.90854   0.41538
C    -1.14438   0.06368   0.99645
C    -2.34116   0.99526   0.81039
H     3.84932  -1.03878   0.80205
H     3.93016   0.54268   1.65223
H     4.49834   0.40914  -0.05306
H     0.77233   2.30310  -1.99158
H    -0.01005   3.73789  -1.22903
H    -0.97348   2.28722  -1.71717
H    -0.72748  -2.06755   0.95386
H    -3.19945  -1.93761   1.44055
H    -2.81199  -2.93697   0.02311
H    -3.47906  -1.30156  -0.20264
H    -0.88606   0.00531   2.06019
H    -2.62528   1.09499  -0.24868
H    -3.21159   0.61019   1.35949
H    -2.12401   1.99781   1.20554
