18
Generated by autodE on: 2022-06-17. E = -605.723819 Ha
C     2.95429  -1.64397  -0.74612
O     1.84315  -0.79252  -0.43497
C     0.64795  -1.38890  -0.30212
O     0.47778  -2.58763  -0.43225
C    -0.40628  -0.41637   0.01618
N    -0.06208   0.85005   0.12408
C     0.13263   1.99971   0.24389
C     0.38337   3.32826   0.37430
N     0.60070   4.47251   0.48642
C    -1.84166  -0.69451   0.23788
C    -2.32516  -2.11373   0.13251
O    -2.60233   0.23341   0.50124
H     3.82811  -0.98536  -0.81003
H     3.10054  -2.39272   0.04590
H     2.79262  -2.15455  -1.70657
H    -2.11303  -2.52141  -0.86711
H    -3.40554  -2.12831   0.32626
H    -1.80077  -2.75637   0.85526
