30
Generated by autodE on: 2022-06-17. E = -763.020905 Ha. Imaginary frequency = -350.5 cm-1
C     3.33680  -1.17780   1.01056
O     2.23419  -0.72156   0.21720
C     1.74032   0.49097   0.51978
O     2.21236   1.20924   1.38198
C     0.56007   0.81420  -0.30058
C    -0.08793   2.13779  -0.31253
C    -1.20879   2.32492  -1.30201
O     0.22876   3.01753   0.48186
N     0.12003  -0.10748  -1.15123
C    -0.56729  -1.09741  -1.24093
C    -0.91759  -2.05976  -2.18445
N    -1.29246  -2.91804  -2.87965
C    -1.52543  -1.42298   0.79063
C    -2.96628  -1.29932   0.36396
C    -0.89283  -0.51443   1.60849
C    -1.51316   0.72475   2.17419
H     3.04713  -1.24831   2.06931
H     3.59597  -2.16992   0.62310
H     4.19409  -0.49626   0.91162
H    -0.86583   2.12936  -2.32988
H    -1.59342   3.34919  -1.22253
H    -2.02022   1.61001  -1.08733
H    -1.08019  -2.42217   0.73353
H    -3.21758  -0.27554   0.04819
H    -3.20190  -1.98210  -0.46576
H    -3.63782  -1.55804   1.20163
H     0.06756  -0.81573   2.03732
H    -2.27273   1.16081   1.50941
H    -2.01483   0.48977   3.13205
H    -0.75460   1.49113   2.39005
