52
Generated by autodE on: 2022-06-22. E = -1172.389664 Ha. Imaginary frequency = -272.8 cm-1
C    -1.68748  -3.34953   1.98462
O    -1.15864  -2.07575   1.59967
C    -1.99110  -1.26202   0.92502
O    -3.14294  -1.57800   0.66198
C    -1.35796  -0.00675   0.50062
C    -2.19837   1.14535   0.15002
C    -1.98550   2.39441   0.77181
C    -2.81218   3.48189   0.49380
C    -3.87541   3.34946  -0.40486
C    -4.11221   2.11054  -1.00990
C    -3.28937   1.01906  -0.73491
O    -0.15291   0.16689   1.07355
C     0.90664   0.81120   0.58433
C     0.75823   1.98619  -0.20261
N     0.71360   2.93639  -0.87693
C     2.15865   0.58726   1.29903
C     3.31885   1.31851   0.97041
C     4.52714   1.04779   1.61161
C     4.59961   0.05541   2.59479
C     3.44795  -0.66472   2.93610
C     2.23722  -0.40630   2.29836
C     1.04105  -0.68240  -1.38639
C     1.98169   0.17911  -2.18873
C     1.70399  -1.82432  -0.66336
C    -0.31279  -0.77965  -1.74157
C    -1.00977  -2.11772  -1.70339
C    -0.89235   0.19223  -2.73501
H    -1.99354  -3.92433   1.09847
H    -2.55102  -3.22658   2.65441
H    -0.87475  -3.86669   2.50765
H    -1.18297   2.51029   1.50122
H    -2.62798   4.43717   0.99090
H    -4.52026   4.20316  -0.62550
H    -4.94568   1.99179  -1.70629
H    -3.48941   0.06053  -1.20803
H     3.27338   2.10057   0.21074
H     5.41788   1.62034   1.34350
H     5.54674  -0.15208   3.09763
H     3.49454  -1.43583   3.70862
H     1.34299  -0.96830   2.56676
H     2.30902  -0.40088  -3.07240
H     1.53065   1.10579  -2.56014
H     2.88801   0.43203  -1.61840
H     1.11521  -2.17736   0.19406
H     1.82738  -2.68038  -1.35212
H     2.70526  -1.54561  -0.30876
H    -0.69216  -2.75953  -0.87455
H    -0.76645  -2.65465  -2.64071
H    -2.10227  -2.01493  -1.66923
H    -0.46057   0.00053  -3.73507
H    -1.97835   0.06973  -2.82579
H    -0.68142   1.24073  -2.48502
