37
Generated by autodE on: 2022-10-06. E = -855.435404 Ha
C    -0.37921   3.78851  -0.68724
N    -0.56663   2.36438  -0.42878
C     0.43735   1.70705   0.33410
N     1.11842   2.44751   1.37480
N     1.57807   1.21521  -0.57097
C     2.01873  -0.13465  -0.03123
C     1.82185  -1.17011  -1.15734
C     1.89628  -2.60872  -0.77422
O     1.66789  -0.77006  -2.29568
N     1.28003  -0.36153   1.18099
C    -0.01416   0.32141   0.97112
C    -0.65699   0.59653   2.26495
N    -1.18730   0.82459   3.26976
C    -0.94157  -0.60808   0.16348
C    -1.36406  -1.77626   0.82381
C    -2.12377  -2.73577   0.15982
C    -2.47099  -2.54734  -1.18310
C    -2.05783  -1.39102  -1.84328
C    -1.30053  -0.42134  -1.17574
H    -1.19623   4.13609  -1.33414
H     0.56554   3.95380  -1.22753
H    -0.36950   4.41259   0.22396
H    -1.49040   2.16785  -0.04832
H     1.63036   3.23343   0.96876
H     0.42317   2.85560   2.00243
H     1.27112   1.08145  -1.55092
H     2.35409   1.88902  -0.58434
H     3.09665  -0.10930   0.17832
H     0.94755  -2.88489  -0.28469
H     2.70105  -2.78152  -0.04430
H     2.03652  -3.22621  -1.67023
H     1.76585   0.11391   1.94300
H    -1.08410  -1.94399   1.86560
H    -2.44150  -3.63567   0.69078
H    -3.06239  -3.30051  -1.70855
H    -2.32193  -1.23139  -2.89085
H    -0.99882   0.47513  -1.71046
