24
Generated by autodE on: 2022-10-06. E = -610.171892 Ha
C     4.77896   0.28501  -0.03293
C     3.32292   0.62155  -0.21231
O     2.96552   1.72324  -0.67098
C     2.34704  -0.36534   0.17183
N     1.06750  -0.01224   0.01373
C    -0.07969  -0.66252   0.24451
C     0.02040  -1.99272   0.72666
N     0.11692  -3.08515   1.12376
C    -1.38829  -0.04858   0.01519
C    -1.52601   1.31464  -0.32190
C    -2.78686   1.86508  -0.54346
C    -3.93811   1.07752  -0.42858
C    -3.81366  -0.27266  -0.08660
C    -2.55585  -0.83183   0.13308
H     5.21678   0.97121   0.71116
H     4.93630  -0.75046   0.29762
H     5.31123   0.45561  -0.98224
H     2.59281  -1.34686   0.57298
H     0.99506   0.94517  -0.36590
H    -0.65345   1.96623  -0.40298
H    -2.86995   2.92301  -0.80232
H    -4.92386   1.51499  -0.60058
H    -4.70321  -0.89944   0.00828
H    -2.47538  -1.88911   0.39384
