20
Generated by autodE on: 2022-06-18. E = -457.715344 Ha
C     3.14964  -0.37727   0.17600
N     1.81861   0.20014   0.08493
C     1.64685   1.57309   0.30229
C     0.43833   2.15659   0.33212
C    -0.84956   1.39537   0.13669
C    -0.56745  -0.08614  -0.05276
C    -1.66051  -1.05417  -0.23770
N    -2.91803  -0.54503  -0.20942
O    -1.47654  -2.27604  -0.41342
C     0.70575  -0.57234  -0.06348
H     3.11418  -1.42492  -0.14782
H     3.53720  -0.34093   1.20844
H     3.85101   0.16623  -0.47553
H     2.57215   2.13462   0.44320
H     0.38573   3.23459   0.50096
H    -1.52390   1.56254   1.00121
H    -1.40731   1.80600  -0.73033
H    -3.70099  -1.17958  -0.32194
H    -3.10891   0.43642  -0.05324
H     0.87994  -1.64072  -0.20093
