32
Generated by autodE on: 2022-06-18. E = -930.618554 Ha. Imaginary frequency = -265.0 cm-1
C    -1.75191   2.95719  -0.20966
N    -0.49308   2.23298  -0.07174
C     0.40392   2.59860   0.94901
C     1.58927   1.99402   1.09897
C     2.05746   0.89330   0.18413
C     0.91540   0.33928  -0.66381
C     1.21379  -0.49456  -1.86707
N     2.48419  -0.93256  -1.99125
O     0.33844  -0.78340  -2.69647
C    -0.26580   1.11340  -0.78702
C    -1.86149  -0.78348   0.14178
C    -3.11992  -0.77630  -0.62737
O    -0.87277  -1.68648  -0.17919
C     0.19153  -1.32690   0.55142
C     1.27071  -2.25410   0.67948
N     2.20048  -2.94652   0.75934
O    -0.20165  -0.65293   1.64638
C    -1.51398  -0.15134   1.35301
O    -2.03385   0.67149   2.08899
H    -2.22740   2.67789  -1.15824
H    -2.43382   2.71463   0.61806
H    -1.56052   4.03966  -0.21356
H     0.06390   3.41461   1.58744
H     2.25820   2.33041   1.89314
H     2.86087   1.28013  -0.47342
H     2.53868   0.09308   0.77465
H     3.18127  -0.78877  -1.27053
H     2.70585  -1.56179  -2.75635
H    -0.93950   0.92362  -1.61959
H    -3.70289  -1.70110  -0.47269
H    -2.91727  -0.67893  -1.70589
H    -3.72963   0.07752  -0.30099
