37
Generated by autodE on: 2022-05-28. E = -896.874218 Ha
C    -1.03849   3.82784  -0.63503
C    -1.86396   2.56907  -0.62456
O    -2.97022   2.48827  -1.15483
N    -1.33817   1.49303   0.04990
N     0.01857   1.48259   0.41033
N     0.53187   0.39895  -0.37408
C     1.89570   0.14736  -0.30530
C     2.42211  -1.06489  -0.80367
C     3.79766  -1.29456  -0.78202
C     4.68042  -0.34045  -0.26369
C     4.15911   0.85658   0.23777
C     2.78577   1.10470   0.22631
C    -0.47697  -0.65503  -0.44541
C    -0.49963  -1.64875   0.76236
O    -1.10787  -0.83887   1.78399
C    -2.33925  -0.59520   1.07433
C    -2.74322  -1.99689   0.64536
C    -1.59462  -2.66260   0.44233
C    -1.32225  -4.01550  -0.11088
C    -1.80538   0.12732  -0.19611
H    -0.75179   4.12541   0.38340
H    -1.62416   4.62481  -1.10956
H    -0.10909   3.66272  -1.20094
H     0.05174   1.18733   1.39418
H     1.75576  -1.82440  -1.21349
H     4.18211  -2.23913  -1.17539
H     5.75570  -0.52984  -0.24617
H     4.82977   1.61400   0.65196
H     2.39384   2.04093   0.62203
H    -0.43134  -1.16882  -1.41225
H     0.47620  -2.03085   1.08090
H    -3.04065  -0.00692   1.67582
H    -3.76272  -2.32843   0.44754
H    -2.25116  -4.56110  -0.33108
H    -0.71488  -4.61431   0.58918
H    -0.73595  -3.93562  -1.04334
H    -2.51972   0.12673  -1.02378
