53
Generated by autodE on: 2022-06-09. E = -3854.660389 Ha
C    -2.33151   4.83553  -0.21707
N    -1.71166   3.52573  -0.12510
C    -1.80462   2.78807   0.99241
O    -2.42807   3.13492   1.99103
C    -1.08188   1.43912   0.93731
O    -0.97218   0.93485   2.31543
C     0.09632   0.10606   2.32493
O     0.53905  -0.37371   3.33556
C     0.58347   0.05413   0.84441
C     1.97421  -0.44295   0.57510
C     2.52649  -1.48625   1.33412
C     3.78549  -2.00134   1.01503
C     4.50631  -1.48528  -0.06517
C     3.95839  -0.45083  -0.82977
C     2.69907   0.06369  -0.51513
N     0.28177   1.45457   0.47301
C     1.14849   2.47424   1.07279
C    -0.55560  -0.76068   0.06154
C    -0.69447  -2.09335   0.81050
O    -1.26960  -2.17381   1.89614
N    -0.03560  -3.14068   0.27826
C     0.13177  -4.37496   1.01999
C    -0.32079  -0.90890  -1.47255
C    -1.51927  -1.69646  -2.06687
C    -2.66964  -0.65082  -2.05545
C    -2.01164   0.58506  -1.40357
C    -0.61211   0.48971  -2.04360
C    -1.74136   0.29482   0.09844
Br   -3.44260  -0.16973   0.99070
H    -1.87228   5.54681   0.48850
H    -3.40570   4.77149   0.01181
H    -2.20582   5.21462  -1.23830
H    -1.10780   3.21449  -0.87932
H     1.97364  -1.89664   2.17755
H     4.20242  -2.81273   1.61597
H     5.49099  -1.88894  -0.31223
H     4.51095  -0.04333  -1.67941
H     2.27323   0.86031  -1.12545
H     0.82258   3.46607   0.73551
H     1.14940   2.46242   2.17779
H     2.17644   2.32235   0.72439
H     0.51255  -3.00665  -0.56301
H     0.65623  -5.10102   0.38673
H     0.71908  -4.21273   1.93956
H    -0.84355  -4.79415   1.30866
H     0.66223  -1.32655  -1.72166
H    -1.27125  -2.01214  -3.09020
H    -1.77093  -2.59995  -1.49965
H    -2.97887  -0.38261  -3.07544
H    -3.55912  -0.99817  -1.51864
H    -2.57067   1.51412  -1.55649
H     0.08924   1.26564  -1.73826
H    -0.68106   0.46653  -3.14103
