24
Generated by autodE on: 2022-06-09. E = -3054.571173 Ha
C     3.81012   0.46873   1.71323
N     2.36709   0.34960   1.71582
C     1.70217  -0.19658   0.66906
O     2.30132  -0.63816  -0.31996
C     0.22793  -0.22717   0.80406
C    -0.70550  -0.27718  -0.17273
Br   -0.47828  -0.29007  -2.04316
C    -2.07728  -0.08265   0.44064
C    -2.12827   1.41656   0.88372
C    -1.08556   1.47423   2.03578
C    -0.55986   0.00462   2.09816
C    -1.85169  -0.78019   1.79714
H     4.16273   1.11313   0.89085
H     4.13364   0.90581   2.66584
H     4.28996  -0.51569   1.59406
H     1.84532   0.73523   2.49428
H    -2.92107  -0.41071  -0.17724
H    -1.89167   2.09221   0.04961
H    -3.13953   1.66111   1.24028
H    -1.55777   1.74605   2.99140
H    -0.27061   2.18680   1.84617
H    -0.02495  -0.25367   3.02071
H    -2.65699  -0.58427   2.52115
H    -1.68634  -1.86302   1.70172
