29
Generated by autodE on: 2022-06-09. E = -800.070515 Ha
C    -5.33866  -0.25430  -0.31865
N    -3.91666  -0.34298  -0.58363
C    -3.01359   0.10961   0.30667
O    -3.32206   0.64205   1.38172
C    -1.60962  -0.08404  -0.09739
O    -1.29710  -0.75205  -1.21190
C     0.11852  -0.78737  -1.35752
O     0.61869  -1.34548  -2.32471
C     0.60959  -0.10158  -0.21795
C     2.01434   0.10064   0.12370
C     2.49388   0.07427   1.45035
C     3.85248   0.24790   1.71893
C     4.76496   0.43364   0.67596
C     4.30473   0.44152  -0.64524
C     2.94752   0.28002  -0.92071
N    -0.49658   0.31815   0.50920
C    -0.44970   1.15748   1.71003
H    -5.88290  -0.66565  -1.17673
H    -5.61319  -0.82314   0.58412
H    -5.64925   0.79131  -0.16706
H    -3.59307  -0.77847  -1.44148
H     1.80983  -0.10955   2.27860
H     4.20124   0.22365   2.75407
H     5.82795   0.56496   0.89061
H     5.00800   0.58272  -1.46949
H     2.59686   0.29457  -1.95322
H    -1.34602   1.78042   1.73859
H     0.44762   1.78219   1.65886
H    -0.41420   0.52764   2.60833
