53
Generated by autodE on: 2022-06-09. E = -3854.616306 Ha. Imaginary frequency = -368.3 cm-1
C    -2.54496   4.77140   0.26650
N    -1.82395   3.51214   0.24653
C    -1.72473   2.75105   1.34856
O    -2.23386   3.04911   2.42789
C    -0.94592   1.46510   1.19694
O    -1.05163   0.64471   2.30910
C     0.02918  -0.20811   2.32172
O     0.12918  -1.08580   3.15816
C     0.88367   0.22377   1.22167
C     2.14829  -0.37881   0.82604
C     2.71905  -1.39339   1.62709
C     3.87741  -2.05262   1.21944
C     4.49480  -1.71818   0.01029
C     3.93892  -0.71719  -0.79299
C     2.77739  -0.05625  -0.39722
N     0.39322   1.45076   0.84142
C     1.15410   2.58042   0.31121
C    -0.94323  -0.92345  -0.13851
C    -0.98631  -2.17692   0.64913
O    -1.85808  -2.45034   1.48227
N     0.03860  -3.04227   0.39940
C     0.24807  -4.19946   1.24560
C    -0.36973  -0.93278  -1.55701
C    -1.50812  -1.55619  -2.42611
C    -2.59448  -0.44257  -2.40862
C    -1.93593   0.68362  -1.55816
C    -0.47366   0.53600  -1.99670
C    -1.86254   0.17353  -0.10948
Br   -3.62180   0.06345   0.72405
H    -2.44932   5.24777  -0.71643
H    -2.13522   5.44626   1.03359
H    -3.61305   4.61294   0.48531
H    -1.42217   3.19217  -0.62815
H     2.24313  -1.65954   2.56857
H     4.30155  -2.83382   1.85424
H     5.40221  -2.23696  -0.30686
H     4.40741  -0.45384  -1.74383
H     2.35339   0.69559  -1.05937
H     1.02141   2.71983  -0.77027
H     0.84048   3.49391   0.83055
H     2.21451   2.40988   0.52388
H     0.83634  -2.69901  -0.12312
H     1.15815  -4.71785   0.91818
H     0.36223  -3.91538   2.30502
H    -0.59827  -4.90005   1.17569
H     0.61025  -1.40885  -1.68019
H    -1.13474  -1.74117  -3.44469
H    -1.86383  -2.51261  -2.01859
H    -2.79517  -0.06068  -3.42007
H    -3.54773  -0.77632  -1.97869
H    -2.41167   1.66338  -1.67501
H     0.21564   1.21077  -1.49518
H    -0.34833   0.65283  -3.08297
