41
Generated by autodE on: 2022-06-17. E = -791.001559 Ha
C    -0.29572   2.59956  -1.75488
C    -0.80059   2.63092  -0.51253
C    -1.57380   3.81659  -0.00270
C    -0.62624   1.49861   0.48294
C    -0.61333   0.08524  -0.16288
C    -1.51170  -0.91584   0.51969
C    -2.36806  -1.77431  -0.06431
C    -2.58823  -1.89156  -1.54792
C    -3.18010  -2.73207   0.76705
C     0.84076  -0.29982   0.00206
C     1.38173  -1.50347  -0.70565
O     0.74997  -2.10258  -1.55553
O     2.61235  -1.83970  -0.32426
C     3.20124  -2.97002  -0.98504
N     1.55774   0.43716   0.75704
C     0.73659   1.54206   1.29725
C     1.53570   2.83851   1.16884
C     0.47952   1.24811   2.78127
H    -0.42449   3.44540  -2.43702
H     0.26927   1.74369  -2.13468
H    -1.13186   4.20700   0.92934
H    -1.61269   4.63323  -0.73846
H    -2.60771   3.52054   0.24794
H    -1.45356   1.56595   1.20260
H    -0.86152   0.13188  -1.22963
H    -1.42483  -0.94126   1.61175
H    -2.21156  -2.86366  -1.91166
H    -2.09442  -1.10261  -2.12969
H    -3.66710  -1.86935  -1.77791
H    -2.97337  -3.77608   0.47143
H    -4.26095  -2.57419   0.60463
H    -2.97063  -2.62855   1.84202
H     2.59813  -3.87303  -0.81152
H     4.19893  -3.08932  -0.54747
H     3.27835  -2.78516  -2.06630
H     0.96098   3.69024   1.55995
H     1.79767   3.05011   0.12348
H     2.46602   2.75820   1.75121
H     1.42944   1.14718   3.32816
H    -0.09341   2.07402   3.22973
H    -0.09362   0.31816   2.90997
