23
Generated by autodE on: 2022-06-17. E = -351.521385 Ha
C    -0.98791   3.27191   1.61784
C    -0.18648   2.23594   1.28571
C     1.23936   2.16228   1.76904
C    -0.69846   1.15816   0.44164
C     0.00159   0.06755   0.04000
C    -0.55607  -0.97410  -0.79823
C     0.07388  -2.09197  -1.23996
C    -0.64344  -3.08626  -2.10860
C     1.49941  -2.44446  -0.92246
H    -2.02268   3.32258   1.26519
H    -0.63061   4.09120   2.24793
H     1.49416   3.03132   2.39187
H     1.41152   1.24855   2.36187
H     1.94451   2.12453   0.92209
H    -1.74088   1.25882   0.11601
H     1.04141  -0.04027   0.36043
H    -1.60070  -0.83036  -1.09994
H    -0.65311  -4.08454  -1.63513
H    -0.12036  -3.21218  -3.07368
H    -1.68225  -2.78761  -2.31219
H     1.54659  -3.42427  -0.41509
H     2.00627  -1.70625  -0.28779
H     2.08191  -2.55492  -1.85422
