12
Generated by autodE on: 2022-06-16. E = -157.299005 Ha
C    -1.63480  -0.26786   0.28053
C    -0.59731   0.60955  -0.35369
C     0.73526   0.44695  -0.33644
C     1.51463  -0.65264   0.32081
H    -2.24284   0.30410   1.00363
H    -1.20432  -1.13099   0.80816
H    -2.34110  -0.65044  -0.47740
H    -0.99008   1.48246  -0.89055
H     1.33994   1.19804  -0.86054
H     0.87591  -1.38266   0.83824
H     2.22734  -0.24175   1.05759
H     2.12331  -1.19923  -0.42115
