15
Generated by autodE on: 2022-06-16. E = -396.252897 Ha
C     3.67426  -0.39391   0.09786
C     2.24500  -0.30950  -0.12793
N     1.10365  -0.24928  -0.32595
N    -0.14309  -0.21229  -0.62423
C    -0.93331   0.25321   0.41793
O    -0.50540   0.60805   1.53034
N    -2.25540   0.28501   0.10905
C    -2.82707  -0.06483  -1.17476
H     3.89423  -0.09117   1.13348
H     4.21187   0.27697  -0.59022
H     4.02429  -1.42727  -0.05111
H    -2.85932   0.65547   0.83336
H    -2.45761   0.58338  -1.98653
H    -3.91732   0.04923  -1.11386
H    -2.60553  -1.10765  -1.45119
