27
Generated by autodE on: 2022-06-16. E = -553.539414 Ha. Imaginary frequency = -417.4 cm-1
C     3.47963   0.99545   0.95759
N     2.69104   0.25924  -0.00782
C     1.55516  -0.39063   0.36974
O     1.27950  -0.62266   1.55695
N     0.76088  -0.73195  -0.71809
N    -0.28361  -1.42691  -0.40980
C    -1.48632  -1.37383  -0.39561
C    -2.68374  -2.20716  -0.23636
C    -1.97634   0.71830  -0.85276
C    -2.84641   1.01600   0.34860
C    -0.75078   1.32140  -1.03227
C    -0.10255   2.19656  -0.00222
H     3.70473   0.36080   1.82597
H     2.96507   1.90209   1.32409
H     4.42789   1.29805   0.49397
H     2.73291   0.55178  -0.97871
H    -3.20326  -1.95048   0.69892
H    -3.37899  -2.02243  -1.06906
H    -2.40993  -3.27263  -0.21931
H    -2.48958   0.36550  -1.75471
H    -3.73247   0.36640   0.38004
H    -3.20669   2.05987   0.31959
H    -2.29884   0.88984   1.29561
H    -0.30053   1.29629  -2.02650
H     0.94392   2.41380  -0.25441
H    -0.12519   1.73745   0.99918
H    -0.63450   3.16305   0.08210
