14
Generated by autodE on: 2022-06-01. E = -2882.112567 Ha
Br    2.51228   0.30546  -1.25672
C     0.91407   0.11161  -0.45937
C    -0.16765  -0.02003   0.08199
C    -1.43923  -0.17483   0.71905
C    -2.15461  -1.38459   0.59926
C    -3.39343  -1.53014   1.22272
C    -3.93500  -0.47885   1.97052
C    -3.23128   0.72418   2.09376
C    -1.99164   0.88050   1.47447
H    -1.72948  -2.20307   0.01538
H    -3.94016  -2.47073   1.12454
H    -4.90563  -0.59730   2.45751
H    -3.65122   1.54697   2.67679
H    -1.44030   1.81785   1.56892
