26
Generated by autodE on: 2022-06-01. E = -669.376887 Ha
C    -2.15669   2.44135  -0.41028
C    -2.79665   1.15332   0.06821
O    -4.01717   1.09684   0.26971
C    -1.91548   0.02126   0.26905
N    -0.59320   0.19030   0.02010
C     0.55653   0.16243  -0.14462
C     1.95729   0.10858  -0.32439
C     2.64063  -1.05792   0.08298
C     4.01976  -1.12678  -0.09102
C     4.71473  -0.05174  -0.65804
C     4.03065   1.10229  -1.05839
C     2.65054   1.19387  -0.89916
C    -2.24586  -1.32476   0.71771
C    -3.68272  -1.65328   1.03571
O    -1.36180  -2.18598   0.83617
H    -2.93466   3.20652  -0.52803
H    -1.40158   2.79548   0.30998
H    -1.64267   2.29062  -1.37326
H     2.07993  -1.88386   0.52340
H     4.55698  -2.02519   0.21923
H     5.79705  -0.11399  -0.78946
H     4.57719   1.93746  -1.50076
H     2.10415   2.08562  -1.20907
H    -4.32591  -1.48853   0.15865
H    -3.73793  -2.70369   1.35210
H    -4.06731  -0.99900   1.83212
