40
Generated by autodE on: 2022-06-01. E = -3551.475464 Ha. Imaginary frequency = -381.7 cm-1
C    -3.25407  -0.77437  -1.75621
C    -2.31195  -1.91553  -1.45705
O    -2.72800  -3.04107  -1.19338
C    -0.87918  -1.59139  -1.43986
C     0.25462  -2.54748  -1.35115
C    -0.03021  -3.99956  -1.08883
O     1.40665  -2.13903  -1.48994
N    -0.50234  -0.35635  -1.81084
C     0.09155   0.59802  -1.39456
C     0.86444   1.76862  -1.65237
C     0.39519   3.03736  -1.26203
C     1.22220   4.14614  -1.41799
C     2.51431   3.99325  -1.93494
C     2.98095   2.72954  -2.31580
C     2.16311   1.61105  -2.17771
C    -0.03005   0.13507   0.87477
C     0.63819   1.30511   1.38090
C     2.03526   1.44146   1.25401
C     2.67267   2.59643   1.70391
C     1.93128   3.63337   2.28228
C     0.54530   3.50303   2.41602
C    -0.10147   2.35049   1.96724
C    -0.64800  -0.94748   0.90384
Br   -1.39370  -2.27310   1.92531
H    -4.28942  -1.13115  -1.68562
H    -3.06741  -0.37295  -2.76483
H    -3.09509   0.05079  -1.04353
H     0.92486  -4.53406  -1.00168
H    -0.62562  -4.41868  -1.91441
H    -0.62961  -4.13046  -0.17816
H    -0.60366   3.13764  -0.83781
H     0.86417   5.13360  -1.12057
H     3.16384   4.86519  -2.03847
H     3.98985   2.61526  -2.71729
H     2.51492   0.61376  -2.44619
H     2.60756   0.64111   0.78200
H     3.75521   2.69277   1.59336
H     2.43284   4.54113   2.62516
H    -0.03964   4.30836   2.86653
H    -1.18542   2.25524   2.05519
