44
Generated by autodE on: 2022-06-22. E = -1258.197430 Ha
C    -2.41446   4.21681   0.25337
O    -1.53450   3.08328   0.15953
C    -1.95314   1.96722   0.72861
O    -2.95159   1.85019   1.40419
C    -0.97004   0.81893   0.54345
O    -0.43429   0.49307   1.85458
C     0.77220  -0.08988   1.61411
O     1.46596  -0.54505   2.48172
C     0.91590  -0.05619   0.08977
C     2.27286  -0.01289  -0.54569
C     3.45378  -0.26478   0.16483
C     4.68763  -0.22204  -0.49039
C     4.75369   0.07811  -1.85345
C     3.57718   0.33878  -2.56389
C     2.34300   0.29153  -1.91457
O     0.16568   1.14380  -0.20043
C    -0.10185  -1.16964  -0.44388
N     0.09693  -2.50813   0.05363
C     1.37241  -3.13043  -0.26951
C    -0.49998  -2.85823   1.26486
C    -1.64485  -2.31125   1.70230
C    -2.39479  -1.32352   0.85747
C    -1.48393  -0.50683  -0.09582
C    -2.26505  -0.13664  -1.36517
N    -2.46765  -1.12457  -2.24834
O    -2.69481   1.00787  -1.53299
H    -3.36746   3.98981  -0.24579
H    -2.59816   4.47322   1.30600
H    -1.90103   5.03846  -0.25778
H     3.40931  -0.50149   1.22666
H     5.60237  -0.42295   0.07189
H     5.71997   0.11141  -2.36204
H     3.62024   0.57971  -3.62845
H     1.42714   0.49863  -2.47177
H     0.04886  -1.17184  -1.53050
H     1.28275  -4.22251  -0.17842
H     2.19489  -2.79514   0.38630
H     1.64458  -2.89481  -1.30790
H     0.02317  -3.63235   1.83186
H    -2.07444  -2.63359   2.65167
H    -3.13802  -1.86235   0.24407
H    -2.97102  -0.61785   1.47097
H    -3.02229  -0.93775  -3.07874
H    -2.14973  -2.07280  -2.07959
