20
Generated by autodE on: 2022-06-22. E = -457.715341 Ha
C     3.13162   0.17653   0.50257
N     1.76012  -0.29666   0.40945
C     1.49703  -1.66954   0.49984
C     0.27092  -2.18582   0.32093
C    -0.94082  -1.34366   0.00616
C    -0.55297   0.12146  -0.10988
C    -1.55047   1.15320  -0.43649
N    -2.82221   0.71575  -0.61644
O    -1.27608   2.36545  -0.55012
C     0.73016   0.53579   0.08853
H     3.13607   1.27283   0.54873
H     3.61238  -0.21330   1.41279
H     3.72996  -0.14121  -0.36840
H     2.36569  -2.28887   0.73053
H     0.14355  -3.26675   0.41446
H    -1.71684  -1.48764   0.78615
H    -1.41981  -1.70183  -0.92790
H    -3.08432  -0.25749  -0.52753
H    -3.54130   1.39356  -0.84431
H     0.98055   1.59392  -0.00257
