24
Generated by autodE on: 2022-06-22. E = -800.441246 Ha
C     4.15520  -0.52571   2.30295
O     2.90804  -0.37406   1.60000
C     2.96590  -0.43004   0.27628
O     3.95770  -0.59791  -0.40140
C     1.63072  -0.25842  -0.32041
O     1.40494  -0.27338  -1.59992
C    -0.03039  -0.06327  -1.81398
O    -0.48071  -0.03966  -2.93911
C    -0.51852   0.06382  -0.49500
C    -1.84680   0.27878   0.02320
C    -2.93569   0.40904  -0.86640
C    -4.22232   0.61391  -0.37120
C    -4.44934   0.69283   1.00742
C    -3.37299   0.56483   1.89340
C    -2.08147   0.35975   1.41231
O     0.54349  -0.06561   0.36422
H     4.84987   0.27616   2.01555
H     4.60163  -1.50359   2.07362
H     3.90704  -0.45615   3.36742
H    -2.76337   0.34814  -1.94134
H    -5.05636   0.71266  -1.06985
H    -5.45983   0.85279   1.38988
H    -3.54168   0.62506   2.97111
H    -1.24729   0.26044   2.10882
