52
Generated by autodE on: 2022-10-22. E = -1314.059391 Ha
C    -6.83332  -2.32246   8.70321
N    -7.67799  -3.33053   8.09083
C    -7.16488  -4.45268   7.56944
O    -5.95519  -4.67662   7.46893
C    -8.16543  -5.42523   7.00032
N    -8.61042  -5.20476   5.78085
N    -9.37678  -6.29718   5.49569
C    -9.95001  -6.39553   4.28644
N   -10.44572  -6.45494   3.23718
C    -9.41478  -7.22275   6.53895
C    -8.63973  -6.67057   7.54460
C    -8.35791  -7.14725   8.96762
O    -7.48256  -6.16108   9.48428
C    -7.01915  -6.32769  10.81460
O    -7.72050  -8.40668   9.00991
C    -6.53110  -8.53402   8.23433
C    -9.62216  -7.23516   9.84491
C   -10.93415  -7.70956   9.22580
C   -10.99185  -9.15038   8.71812
C   -10.11587  -9.51028   7.51574
C   -10.16377  -8.53077   6.30478
C   -11.57757  -8.18887   6.03625
N   -12.69151  -7.92425   5.85153
C    -9.57209  -9.26050   5.07457
C   -10.38178 -10.09769   4.29636
C    -9.83857 -10.80293   3.22081
C    -8.48015 -10.68024   2.91241
C    -7.66974  -9.84803   3.68800
C    -8.21260  -9.13967   4.76380
H    -7.44473  -1.44575   8.94818
H    -6.03246  -2.01815   8.01380
H    -6.36442  -2.69953   9.62731
H    -8.68617  -3.25400   8.17916
H    -7.80185  -6.10091  11.55716
H    -6.64187  -7.34776  10.98727
H    -6.19271  -5.61503  10.94353
H    -6.75822  -8.91341   7.22603
H    -5.88263  -9.25823   8.74743
H    -6.00042  -7.57421   8.14909
H    -9.78514  -6.21743  10.22921
H    -9.36456  -7.87315  10.70441
H   -11.24544  -7.01129   8.43179
H   -11.70295  -7.60600  10.00831
H   -12.04081  -9.37359   8.46427
H   -10.72165  -9.83794   9.53689
H   -10.43675 -10.48763   7.13077
H    -9.06278  -9.60263   7.79790
H   -11.44427 -10.20063   4.52606
H   -10.48291 -11.44805   2.61936
H    -8.05654 -11.22891   2.06825
H    -6.60761  -9.74191   3.45641
H    -7.56811  -8.48698   5.35339
