13
Generated by autodE on: 2022-10-22. E = -449.162427 Ha
C    -3.02047   0.79752   0.29479
N    -2.59709  -0.15287  -0.71786
C    -1.35161  -0.58364  -0.94209
O    -0.99486  -1.39164  -1.79570
C    -0.31083  -0.01883  -0.06548
N     0.66082   0.30118   0.48875
N     1.60600   0.76521   1.20066
C     2.83617   0.33241   0.95593
N     3.96353   0.03704   0.84539
H    -3.72404   0.32727   0.99750
H    -3.50974   1.66474  -0.17212
H    -2.15236   1.15702   0.86369
H    -3.30518  -0.55356  -1.33159
