52
Generated by autodE on: 2022-10-22. E = -1313.908977 Ha. Imaginary frequency = -248.1 cm-1
C    -6.52652  -2.79077   8.91229
N    -7.26304  -3.79984   8.17493
C    -6.97705  -4.08499   6.90578
O    -6.18466  -3.50188   6.16867
C    -7.74125  -5.23038   6.33333
N    -8.29790  -5.55852   5.32833
N    -9.15845  -6.35705   4.83336
C    -9.04972  -6.73244   3.56529
N    -9.06868  -7.10425   2.45661
C    -9.32363  -7.71126   6.83268
C    -8.57362  -7.16756   7.64409
C    -8.16283  -7.22473   9.08846
O    -8.37062  -5.91690   9.60554
C    -8.13229  -5.72935  11.00100
O    -6.84114  -7.65634   9.27002
C    -5.80399  -6.87545   8.69158
C    -9.04228  -8.27443   9.79774
C   -10.55219  -8.08189   9.56960
C   -11.25676  -9.19082   8.76494
C   -10.62154  -9.69562   7.46515
C   -10.34100  -8.64958   6.32357
C   -11.57316  -7.88675   6.05364
N   -12.56081  -7.30346   5.88257
C    -9.87725  -9.40194   5.06751
C   -10.79749  -9.82760   4.10389
C   -10.36185 -10.53990   2.98344
C    -9.00548 -10.83572   2.82214
C    -8.08658 -10.42164   3.79136
C    -8.52021  -9.70865   4.91065
H    -7.13786  -2.44095   9.75382
H    -6.29583  -1.93929   8.25906
H    -5.57908  -3.19582   9.30642
H    -7.79682  -4.50715   8.70193
H    -8.98929  -6.07163  11.60192
H    -7.22022  -6.25193  11.32452
H    -7.99811  -4.64917  11.15000
H    -5.91408  -6.80923   7.59620
H    -4.86231  -7.39144   8.92140
H    -5.76851  -5.86067   9.11666
H    -8.79021  -8.24328  10.86699
H    -8.70139  -9.25347   9.43342
H   -10.72941  -7.10698   9.09080
H   -11.06023  -8.02036  10.54428
H   -12.28791  -8.86087   8.55622
H   -11.35177 -10.08297   9.40676
H   -11.27998 -10.46060   7.02723
H    -9.65443 -10.18275   7.65723
H   -11.85816  -9.59450   4.21720
H   -11.08704 -10.85878   2.23137
H    -8.66470 -11.38585   1.94206
H    -7.02438 -10.64774   3.67339
H    -7.79856  -9.37629   5.65917
