36
Generated by autodE on: 2022-06-03. E = -621.978617 Ha
C     0.79444  -0.27191  -3.74830
C    -0.41471  -0.63265  -2.87078
C    -1.67838  -0.72692  -3.74552
C    -0.61757   0.33376  -1.78200
C    -0.84017   0.75927  -0.66664
C    -1.06863   0.70888   0.77731
C     0.16652   1.03439   1.60821
C     1.46875   0.88241   1.11247
C     2.57720   1.13259   1.92890
C     2.39907   1.54051   3.25354
C     1.10278   1.69847   3.75687
C    -0.00154   1.44685   2.93976
C    -1.58916  -0.73910   1.06150
C    -0.76267  -1.89361   0.45808
C    -1.09526  -2.37579  -0.98382
C    -0.14494  -1.98529  -2.13637
H     0.62244   0.67332  -4.28629
H     0.96993  -1.06390  -4.49363
H     1.70590  -0.16267  -3.14061
H    -2.55859  -1.01576  -3.15219
H    -1.89411   0.24023  -4.22522
H    -1.53113  -1.47908  -4.53678
H    -1.86310   1.40827   1.08253
H     1.61578   0.57307   0.07596
H     3.58512   1.00994   1.52454
H     3.26460   1.73915   3.89017
H     0.95158   2.02310   4.78942
H    -1.01237   1.57283   3.33744
H    -2.62637  -0.80406   0.69344
H    -1.63594  -0.85621   2.15610
H    -0.91784  -2.75600   1.12569
H     0.31328  -1.66036   0.53502
H    -1.09850  -3.47716  -0.95588
H    -2.13105  -2.09332  -1.23811
H     0.88852  -1.96364  -1.75121
H    -0.17210  -2.77348  -2.90818
