24
Generated by autodE on: 2022-06-03. E = -443.816184 Ha
C    -3.49388   1.92406  -0.17223
C    -2.81046   0.62388   0.08376
C    -3.56764  -0.60260   0.44675
N    -1.49218   0.54989  -0.00542
C    -0.65419  -0.51019   0.19472
C     0.76011  -0.41096   0.03843
C     1.44904   0.77059  -0.36781
C     2.83662   0.79569  -0.49258
C     3.61283  -0.34104  -0.22730
C     2.95571  -1.51691   0.16875
C     1.57181  -1.55543   0.29899
H    -4.07155   2.25343   0.71103
H    -2.77511   2.71863  -0.42533
H    -4.21918   1.83889  -1.00217
H    -4.64770  -0.40616   0.46835
H    -3.26223  -0.98745   1.43949
H    -3.37374  -1.42284  -0.27172
H    -1.03357   1.42585  -0.26204
H    -1.11236  -1.45027   0.49338
H     0.89336   1.68535  -0.59393
H     3.32256   1.72438  -0.80603
H     4.69993  -0.31287  -0.32799
H     3.53621  -2.41963   0.38093
H     1.08299  -2.48287   0.61116
