71
Generated by autodE on: 2022-07-02. E = -1779.285128 Ha
C    -2.32881  -3.84905  -2.45510
N    -1.60838  -2.98224  -1.54303
C    -2.10933  -1.81634  -1.13365
O    -3.23827  -1.41346  -1.45245
C    -1.23188  -1.01073  -0.14841
C    -1.94039  -1.09208   1.24696
O    -1.28166  -1.29225   2.26688
N    -3.26881  -0.93429   1.25803
C    -4.00336  -0.80188   2.49934
O     0.01558  -1.65438  -0.05646
C     1.12709  -0.76594   0.10414
C     1.36423  -0.64960   1.64888
O     1.32140   0.40836   2.27650
N     1.62064  -1.82718   2.24476
C     1.63153  -1.94960   3.68777
C     2.31934  -1.48399  -0.55068
C     3.61518  -1.42437  -0.01474
C     4.68097  -2.08031  -0.63568
C     4.46994  -2.82275  -1.80000
C     3.18181  -2.90191  -2.33524
C     2.11905  -2.24047  -1.71597
C     0.66838   0.59370  -0.57899
C     1.38980   1.85061  -0.07787
C     2.79125   1.81615   0.03023
C     3.53511   2.95306   0.34919
C     2.89724   4.17911   0.55378
C     1.51162   4.24508   0.40021
C     0.77362   3.10333   0.07378
C     0.94658   0.57524  -2.15137
C     0.56585   1.94642  -2.68947
C    -0.77043   1.95965  -2.68524
C    -1.17933   0.58829  -2.18213
O    -0.11065  -0.24132  -2.65270
C    -0.94471   0.49365  -0.61856
C    -1.80633   1.46054   0.17454
C    -1.52297   1.76013   1.51796
C    -2.37942   2.56499   2.26805
C    -3.54369   3.08742   1.69468
C    -3.83790   2.79482   0.36211
C    -2.97737   1.98732  -0.38925
H    -3.35397  -4.01911  -2.09511
H    -1.80589  -4.81080  -2.51842
H    -2.38889  -3.40959  -3.46408
H    -0.65630  -3.20228  -1.26831
H    -3.73073  -0.76289   0.36729
H    -5.05223  -0.58052   2.26780
H    -3.59293   0.01640   3.11243
H    -3.95899  -1.72839   3.09337
H     1.49514  -2.67009   1.69457
H     2.29456  -1.19298   4.13065
H     2.00013  -2.94654   3.96118
H     0.62177  -1.81261   4.11039
H     3.81012  -0.86851   0.90215
H     5.67937  -2.01509  -0.19738
H     5.30205  -3.34029  -2.28284
H     2.99763  -3.48075  -3.24328
H     1.12630  -2.29839  -2.15485
H     3.32827   0.88934  -0.14661
H     4.62206   2.87507   0.43096
H     3.47324   5.07201   0.80802
H     0.98948   5.19747   0.52123
H    -0.29262   3.21652  -0.08388
H     1.93171   0.19096  -2.42533
H     1.26212   2.74967  -2.92308
H    -1.45228   2.77471  -2.92194
H    -2.14532   0.21257  -2.51648
H    -0.61945   1.36258   1.97597
H    -2.13458   2.78581   3.30971
H    -4.21605   3.71560   2.28367
H    -4.74532   3.18984  -0.10070
H    -3.25102   1.75652  -1.41810
