33
Generated by autodE on: 2022-07-02. E = -769.851086 Ha
C    -1.11009   2.81640   0.91071
C     0.20759   2.96282   1.08163
C     0.83570   2.40041  -0.21263
O    -0.15816   2.78392  -1.17710
C    -1.25246   2.16543  -0.48098
C    -0.71359   0.70832  -0.36677
C    -1.58877  -0.46014  -0.41836
C    -2.92787  -0.35237   0.01006
C    -3.78270  -1.45634  -0.02767
C    -3.32468  -2.68549  -0.51047
C    -2.00275  -2.80089  -0.95944
C    -1.14489  -1.70362  -0.91580
C     0.61997   0.86038  -0.17559
C     1.68543  -0.07740   0.18855
C     1.43315  -1.18742   1.02144
C     2.46067  -2.05755   1.38280
C     3.76555  -1.83990   0.92416
C     4.03380  -0.73679   0.10841
C     3.00710   0.13919  -0.25057
H    -1.93194   3.02275   1.59562
H     0.76531   3.32288   1.94557
H     1.83573   2.75551  -0.48164
H    -2.20347   2.29346  -1.00850
H    -3.29825   0.60177   0.39170
H    -4.81359  -1.35355   0.31967
H    -3.99447  -3.54787  -0.54503
H    -1.64034  -3.75389  -1.35257
H    -0.12156  -1.80079  -1.28100
H     0.42338  -1.35655   1.39743
H     2.24399  -2.90830   2.03346
H     4.56951  -2.52303   1.20797
H     5.04964  -0.55518  -0.25077
H     3.22935   0.99494  -0.89117
