38
Generated by autodE on: 2022-07-27. E = -1009.357568 Ha
C    -2.29645  -0.13350  -3.98972
N    -1.60772  -0.06389  -2.71858
C    -2.28486   0.08976  -1.55522
O    -3.53301   0.21270  -1.55039
C    -1.50086   0.13774  -0.32546
O    -0.18473  -0.07770  -0.53158
C     0.86644   0.07678   0.20914
C     0.78824   0.97450   1.41556
O     0.17703   2.04255   1.31591
N     1.48086   0.60417   2.50098
C     1.41690   1.37659   3.72752
C     2.09403  -0.43818  -0.36469
C     3.36597  -0.03614   0.10579
C     4.52401  -0.53370  -0.48686
C     4.44339  -1.43543  -1.55330
C     3.18925  -1.84045  -2.02943
C     2.02608  -1.35404  -1.44386
C    -2.04150   0.00188   1.02215
O    -1.31885  -0.36179   1.97428
N    -3.36314   0.25128   1.17293
C    -4.04416  -0.06917   2.40834
H    -2.88651   0.77790  -4.17847
H    -2.98564  -0.99286  -4.03564
H    -1.55214  -0.23979  -4.78856
H    -0.59914  -0.15972  -2.69280
H     1.87887  -0.32986   2.52560
H     2.11578   0.94726   4.45539
H     1.69382   2.42398   3.53958
H     0.39894   1.35944   4.15122
H     3.44776   0.68132   0.92098
H     5.49861  -0.20809  -0.11718
H     5.35500  -1.82454  -2.01205
H     3.12131  -2.54874  -2.85801
H     1.05166  -1.68524  -1.80477
H    -3.88476   0.35337   0.29838
H    -5.06054   0.34385   2.37443
H    -4.11557  -1.15778   2.58252
H    -3.51425   0.37084   3.26588
