71
Generated by autodE on: 2022-07-02. E = -1779.204849 Ha. Imaginary frequency = -221.8 cm-1
C    -2.07416  -3.65039  -2.98413
N    -1.51782  -3.16424  -1.73797
C    -2.14036  -2.21180  -1.01299
O    -3.32966  -1.89588  -1.24136
C    -1.36929  -1.55661   0.06274
C    -1.99122  -1.16217   1.33536
O    -1.30643  -0.96900   2.35510
N    -3.33352  -1.01384   1.31225
C    -4.10892  -0.57570   2.44841
O    -0.05143  -1.80933  -0.03042
C     1.04186  -1.18094   0.36952
C     1.23006  -0.82192   1.84519
O     1.45772   0.31684   2.25046
N     1.31935  -1.91664   2.62923
C     1.35875  -1.78781   4.07312
C     2.26155  -1.56846  -0.33909
C     3.52686  -1.25869   0.20635
C     4.69492  -1.59418  -0.47537
C     4.62979  -2.24263  -1.71241
C     3.38092  -2.55220  -2.26549
C     2.20957  -2.21715  -1.59189
C     0.46709   0.94110  -0.83905
C     1.48376   1.88707  -0.32484
C     2.83406   1.69230  -0.68736
C     3.83168   2.58465  -0.29111
C     3.50713   3.71857   0.45663
C     2.16628   3.95874   0.77665
C     1.17177   3.06195   0.38869
C     0.68131   0.51505  -2.32498
C     0.24747   1.74274  -3.15361
C    -1.08560   1.77095  -3.04370
C    -1.42895   0.56385  -2.14861
O    -0.41737  -0.36587  -2.54636
C    -0.93692   0.93515  -0.72128
C    -1.82858   1.61083   0.21347
C    -1.47514   1.86227   1.55777
C    -2.34834   2.52976   2.41282
C    -3.60019   2.95958   1.95813
C    -3.97756   2.69674   0.63803
C    -3.10960   2.02084  -0.21983
H    -3.13369  -3.91018  -2.85588
H    -1.52467  -4.54765  -3.29601
H    -1.99839  -2.89364  -3.78449
H    -0.53190  -3.31859  -1.56312
H    -3.77962  -1.16433   0.40570
H    -4.81079  -1.35905   2.78148
H    -4.69176   0.32411   2.19889
H    -3.43540  -0.33626   3.27917
H     0.94879  -2.78249   2.24822
H     2.14554  -1.08034   4.36819
H     1.57798  -2.76752   4.51623
H     0.39614  -1.42147   4.46860
H     3.59868  -0.73346   1.15849
H     5.66344  -1.34291  -0.03757
H     5.54661  -2.50414  -2.24540
H     3.31951  -3.05354  -3.23393
H     1.24559  -2.43853  -2.04503
H     3.11827   0.83197  -1.28853
H     4.86856   2.39032  -0.57614
H     4.28549   4.41820   0.77006
H     1.88792   4.85949   1.32944
H     0.13872   3.29446   0.63249
H     1.63498   0.04864  -2.58184
H     0.92408   2.44347  -3.64115
H    -1.80242   2.50069  -3.41850
H    -2.42999   0.13527  -2.22730
H    -0.51397   1.51684   1.93044
H    -2.05094   2.71141   3.44832
H    -4.28105   3.48460   2.63200
H    -4.95634   3.01586   0.27249
H    -3.43032   1.82526  -1.24351
