26
Generated by autodE on: 2022-06-19. E = -669.354870 Ha
C     4.38350   0.30412  -0.80629
C     3.19925   1.23327  -0.83969
O     3.25398   2.42277  -1.14939
C     1.96566   0.61983  -0.46993
N     0.94099   0.10220  -0.20142
C    -0.08710  -0.64686   0.13069
C     0.29797  -2.04050   0.43248
C    -0.72906  -2.99442   0.98405
O     1.46333  -2.40675   0.25854
C    -1.41468  -0.01150   0.22317
C    -2.59973  -0.70456  -0.09144
C    -3.83853  -0.06599  -0.00779
C    -3.92215   1.27501   0.37805
C    -2.75011   1.97831   0.67680
C    -1.51103   1.34357   0.60230
H     4.10055  -0.72309  -0.53657
H     5.11162   0.69066  -0.07494
H     4.86217   0.31108  -1.79843
H    -1.29495  -3.45023   0.15498
H    -0.20146  -3.79731   1.51643
H    -1.44826  -2.50265   1.65267
H    -2.55743  -1.73881  -0.42989
H    -4.74530  -0.62128  -0.25896
H    -4.89341   1.77086   0.44088
H    -2.80119   3.02748   0.97731
H    -0.60409   1.89988   0.84936
