14
Generated by autodE on: 2022-06-19. E = -270.683226 Ha
C    -1.94312  -1.31785   0.08722
C    -0.78814  -0.36706   0.08097
C    -1.08186   1.03521   0.53140
C     0.44518  -0.78439  -0.31636
C     1.64638   0.03532  -0.36804
O     1.73920   1.22333  -0.06718
H    -1.66562  -2.32509  -0.25274
H    -2.36923  -1.38336   1.10390
H    -2.75261  -0.92883  -0.55535
H    -0.45710   1.30966   1.39616
H    -0.83743   1.76186  -0.25957
H    -2.13974   1.15030   0.80587
H     0.57506  -1.82439  -0.62978
H     2.55405  -0.51067  -0.72308
