45
Generated by autodE on: 2022-06-22. E = -1068.891472 Ha
C     0.55667   0.26971   2.56510
N     1.17509  -0.01466   1.28360
C     2.28610   0.64515   0.87928
C     3.09206   0.23920  -0.14460
C     4.23859   1.08312  -0.49074
N     5.12648   0.57704  -1.38576
O     4.42063   2.21751   0.00092
C     2.84410  -1.12376  -0.74041
C     1.35841  -1.48235  -0.75062
N     0.70535  -0.94713  -1.96331
N    -0.39519  -0.43856  -1.74878
C    -0.79285  -0.46081  -0.29384
C    -1.19191   0.97408   0.04949
C    -2.38561   1.28852   0.71362
C    -2.70345   2.61496   1.02189
C    -1.83534   3.64938   0.66450
C    -0.64931   3.34806  -0.01247
C    -0.33409   2.02353  -0.32034
C    -1.95572  -1.43634  -0.13536
C    -2.78822  -1.75533  -1.21847
C    -3.87541  -2.61825  -1.05227
C    -4.15654  -3.16633   0.20185
C    -3.34238  -2.84121   1.29080
C    -2.25128  -1.98514   1.12285
C     0.51149  -0.99327   0.43934
H     0.67925  -0.58133   3.25782
H     1.02837   1.15441   3.01239
H    -0.51923   0.46610   2.45592
H     2.53340   1.54630   1.44560
H     5.04628  -0.35586  -1.76880
H     5.93702   1.13473  -1.63020
H     3.20017  -1.19368  -1.77896
H     3.38774  -1.89670  -0.16883
H     1.25650  -2.57378  -0.84687
H    -3.07461   0.49550   1.00333
H    -3.63719   2.83725   1.54390
H    -2.08357   4.68557   0.90624
H     0.03519   4.14771  -0.30533
H     0.59124   1.80871  -0.85568
H    -2.58688  -1.32461  -2.19892
H    -4.50697  -2.85993  -1.91058
H    -5.00686  -3.83995   0.33146
H    -3.55579  -3.25447   2.27943
H    -1.63747  -1.73043   1.98839
H     0.23809  -1.84363   1.07212
