20
Generated by autodE on: 2022-06-22. E = -457.715306 Ha
C    -3.11660  -0.04514  -0.61892
N    -1.82141   0.17886   0.00189
C    -1.72967   1.01110   1.12458
C    -0.55974   1.31117   1.71036
C     0.76724   0.78763   1.21860
C     0.57146  -0.08269  -0.01219
C     1.71366  -0.70610  -0.69994
N     2.93900  -0.45220  -0.17512
O     1.59605  -1.43068  -1.70923
C    -0.66884  -0.32093  -0.52507
H    -3.52259   0.88544  -1.05006
H    -3.01137  -0.78558  -1.42165
H    -3.83980  -0.42865   0.11778
H    -2.68349   1.39557   1.49031
H    -0.56966   1.96397   2.58624
H     1.27687   0.22283   2.02632
H     1.45107   1.63359   1.00113
H     3.07869   0.13407   0.63780
H     3.75178  -0.86046  -0.62364
H    -0.78009  -0.94904  -1.41031
