25
Generated by autodE on: 2022-06-22. E = -611.140494 Ha
N     0.00533  -2.76452  -1.64729
N     0.00361  -1.78395  -1.06217
C     0.00097  -0.66082  -0.39142
C     1.31732  -0.05307  -0.10746
C     2.41676  -0.27408  -0.96095
C     3.66533   0.27819  -0.67375
C     3.84410   1.07083   0.46477
C     2.75973   1.29522   1.31926
C     1.51075   0.73679   1.04337
C    -1.31727  -0.12455   0.00422
C    -1.50856   1.26202   0.16771
C    -2.75928   1.76900   0.52353
C    -3.84760   0.91104   0.71259
C    -3.67087  -0.46587   0.54103
C    -2.42080  -0.98011   0.19585
H     2.29242  -0.87864  -1.86228
H     4.50260   0.09447  -1.35137
H     4.82032   1.50855   0.68503
H     2.88718   1.90388   2.21781
H     0.68303   0.90389   1.73355
H    -0.67775   1.94882   0.00247
H    -2.88484   2.84777   0.64438
H    -4.82520   1.31191   0.98956
H    -4.51110  -1.14924   0.68584
H    -2.29862  -2.05942   0.07978
