45
Generated by autodE on: 2022-06-22. E = -1068.834540 Ha. Imaginary frequency = -478.2 cm-1
C     0.28144   0.24650   2.57072
N     1.12273  -0.12967   1.44713
C     2.21589   0.60469   1.10142
C     3.08390   0.25509   0.10940
C     4.21151   1.15913  -0.15063
N     5.12668   0.73465  -1.05916
O     4.34949   2.26430   0.41511
C     2.91280  -1.05313  -0.63416
C     1.52303  -1.62358  -0.42638
N     0.64064  -0.91853  -2.11092
N    -0.39619  -0.47304  -1.80504
C    -1.14012  -0.31600  -0.65709
C    -1.29593   1.08110  -0.20679
C    -2.48153   1.54952   0.39626
C    -2.56203   2.84989   0.89287
C    -1.46961   3.71914   0.78866
C    -0.30082   3.27890   0.15996
C    -0.21482   1.97836  -0.33604
C    -2.16905  -1.35659  -0.45218
C    -2.59256  -2.19786  -1.49971
C    -3.51325  -3.22178  -1.26785
C    -4.03937  -3.42614   0.01080
C    -3.62527  -2.59787   1.06025
C    -2.69959  -1.57918   0.83684
C     0.72713  -1.20342   0.64340
H    -0.72369   0.53754   2.23464
H     0.73613   1.09267   3.09960
H     0.18132  -0.59657   3.27321
H     2.37776   1.51728   1.67602
H     5.06975  -0.16886  -1.51109
H     5.92373   1.32847  -1.25952
H     3.09093  -0.91411  -1.71612
H     3.67288  -1.79107  -0.30634
H     1.36745  -2.65196  -0.76046
H    -3.34611   0.89131   0.47986
H    -3.48907   3.18973   1.36093
H    -1.53397   4.73504   1.18506
H     0.55649   3.94886   0.05972
H     0.70450   1.65448  -0.82351
H    -2.20569  -2.04191  -2.50839
H    -3.82742  -3.85846  -2.09854
H    -4.76278  -4.22471   0.18993
H    -4.01862  -2.75188   2.06801
H    -2.36431  -0.96383   1.67229
H    -0.01539  -1.86000   1.09143
