23
Generated by autodE on: 2022-07-27. E = -605.336562 Ha
C    -1.98712  -3.51279  -0.07010
N    -1.12344  -2.35350  -0.20789
C    -1.62595  -1.12725  -0.40687
O    -2.82570  -0.88630  -0.55764
C    -0.62752  -0.00004  -0.52639
C    -0.67268   0.79465  -1.77733
N     0.18488   0.28411   0.46641
C     0.03711  -0.33711   1.79891
C     1.27070   1.18008   0.32511
C     2.03592   1.18505  -0.85146
N     2.68539   1.17302  -1.82594
C     1.67117   1.97900   1.40977
N     2.02607   2.65909   2.29470
H    -2.69964  -3.56158  -0.90646
H    -1.36780  -4.41739  -0.07224
H    -2.56161  -3.47370   0.86965
H    -0.12342  -2.46647  -0.06969
H    -0.44891   1.85288  -1.57002
H    -1.67207   0.69655  -2.22057
H     0.06701   0.43813  -2.51489
H    -0.97925  -0.71880   1.93036
H     0.21943   0.43590   2.55473
H     0.77918  -1.13772   1.91621
