23
Generated by autodE on: 2022-06-21. E = -605.333762 Ha
C     3.02497   0.54834  -0.00697
N     2.41439  -0.72271   0.33671
C     1.16517  -1.10313   0.04079
O     0.59832  -2.08283   0.53114
C     0.45162  -0.36003  -1.07063
C     0.99358  -0.48917  -2.45443
N    -0.69911   0.22010  -0.83652
C    -1.52540   0.66196  -1.97744
C    -1.17621   0.53237   0.45882
C    -2.55477   0.64567   0.69650
N    -3.69838   0.75390   0.92756
C    -0.28369   0.75136   1.51730
N     0.45375   0.95788   2.40375
H     2.37179   1.11564  -0.68206
H     3.99585   0.39760  -0.50138
H     3.17631   1.15567   0.89876
H     2.87546  -1.29013   1.04603
H     0.39155  -1.21111  -3.03346
H     0.96739   0.47148  -2.99168
H     2.02644  -0.85566  -2.42581
H    -1.62760  -0.15531  -2.70003
H    -2.51358   0.95657  -1.61419
H    -1.04387   1.52501  -2.45678
