36
Generated by autodE on: 2022-06-17. E = -804.626152 Ha
C     4.66304   1.22557  -1.95478
C     3.79208   0.93137  -0.96842
C     4.21505   0.87985   0.47595
C     2.39058   0.64936  -1.29868
C     1.42729   0.34743  -0.40927
C     0.01516   0.04923  -0.79234
C    -0.47374  -1.38600  -0.38630
C     0.12896  -2.53911  -1.14087
N    -1.93954  -1.20207  -0.50467
C    -2.00218  -0.13691   0.46129
C    -3.33977   0.26725   0.88334
N    -4.39539   0.61809   1.20637
O    -1.29340  -0.65953   1.65045
C    -0.30672  -1.44456   1.13412
O     0.51137  -2.00440   1.81752
C    -1.10024   0.98076  -0.15996
C    -0.60435   1.96535   0.89842
C    -1.85339   1.73800  -1.25487
H     5.71456   1.43896  -1.74313
H     4.34306   1.25965  -3.00066
H     5.28582   1.10191   0.58575
H     4.01939  -0.11456   0.91062
H     3.64595   1.60463   1.08171
H     2.12974   0.69306  -2.36262
H     1.67380   0.29938   0.65477
H    -0.07839   0.09243  -1.88574
H    -0.03285  -2.41370  -2.22097
H     1.21114  -2.57848  -0.95083
H    -0.31379  -3.49366  -0.81921
H    -2.43882  -2.02736  -0.15934
H     0.04961   2.71354   0.42779
H    -1.45892   2.49488   1.34835
H    -0.04131   1.47828   1.70376
H    -2.64864   2.36802  -0.82666
H    -1.15051   2.39679  -1.78702
H    -2.30188   1.05186  -1.98610
