13
Generated by autodE on: 2022-06-17. E = -453.064694 Ha
C    -2.61177  -1.05669  -0.18869
C    -1.27398  -0.42912  -0.07016
N    -0.08940  -1.05774  -0.27562
C     0.93734  -0.22452  -0.08981
C     2.30317  -0.49752  -0.21102
N     3.44455  -0.72449  -0.31175
O     0.45698   0.98369   0.24516
C    -0.96431   0.91667   0.27609
O    -1.62599   1.90360   0.55695
H    -2.78239  -1.46760  -1.19725
H    -3.37786  -0.29463   0.00823
H    -2.74472  -1.87649   0.53658
H     0.01602  -2.03984  -0.53819
