36
Generated by autodE on: 2022-06-17. E = -804.575949 Ha. Imaginary frequency = -408.9 cm-1
C     4.57397   0.97895  -1.78810
C     3.58588   1.12749  -0.87674
C     3.88877   1.44612   0.56525
C     2.19353   0.95080  -1.27134
C     1.11957   1.11469  -0.45094
C    -0.23626   0.85066  -0.83858
C    -0.52546  -1.69507  -0.67909
C    -0.03979  -2.31221  -1.93111
N    -1.81844  -1.48050  -0.33843
C    -1.80713  -0.64549   0.76885
C    -2.97252  -0.52143   1.59024
N    -3.91866  -0.32784   2.23782
O    -0.62568  -0.90715   1.43990
C     0.26380  -1.44091   0.49642
O     1.44017  -1.62908   0.75250
C    -1.38824   1.17889  -0.06789
C    -1.22893   2.03333   1.17512
C    -2.65685   1.44787  -0.85352
H     5.62626   1.09122  -1.51277
H     4.34920   0.73829  -2.83173
H     3.41586   2.39309   0.87405
H     3.48554   0.66071   1.22585
H     4.97101   1.52861   0.73795
H     2.01742   0.65258  -2.31159
H     1.29324   1.41970   0.58360
H    -0.39649   0.59114  -1.88860
H     0.93762  -1.87703  -2.19108
H     0.10465  -3.39955  -1.80910
H    -0.74377  -2.14127  -2.75721
H    -2.58023  -1.45807  -1.01524
H    -2.17174   2.08188   1.74033
H    -0.44804   1.65260   1.84694
H    -0.95898   3.06492   0.89315
H    -3.55668   1.37073  -0.22351
H    -2.76136   0.75999  -1.70643
H    -2.63109   2.47288  -1.26176
