30
Generated by autodE on: 2022-06-08. E = -543.362518 Ha
C     0.90426  -2.53032   0.21939
C     1.18383  -1.08358   0.45485
C     0.37966   0.00757   0.34527
C    -1.04740   0.08570   0.01550
C    -1.96494  -0.90562   0.42619
C    -3.31840  -0.81502   0.09617
C    -3.79617   0.27070  -0.64572
C    -2.90437   1.27193  -1.04463
C    -1.55093   1.18478  -0.71361
C     1.28994   1.23382   0.43927
C     2.13087   1.26799  -0.87693
C     3.03864   0.01206  -0.73439
C     2.60453  -0.56994   0.65071
C     2.34532   0.72652   1.43956
H     0.92036  -3.10296   1.16409
H     1.69203  -2.96542  -0.41951
H    -0.06736  -2.70577  -0.26324
H    -1.61761  -1.74109   1.03539
H    -4.00795  -1.59408   0.43122
H    -4.85607   0.34117  -0.90134
H    -3.26556   2.12964  -1.61779
H    -0.86914   1.97401  -1.03610
H     0.78422   2.17814   0.67874
H     2.72888   2.19097  -0.92583
H     1.48932   1.23625  -1.76907
H     4.10504   0.28490  -0.71786
H     2.89384  -0.71940  -1.54302
H     3.30989  -1.29760   1.07499
H     1.93381   0.54483   2.44377
H     3.22913   1.38052   1.51206
