35
Generated by autodE on: 2022-06-08. E = -932.869552 Ha
C    -0.74056   3.38437   1.35549
N    -0.94626   2.11811   0.68112
C    -0.25180   1.02556   1.03083
O     0.53011   1.00018   1.98424
C    -0.56013  -0.21849   0.22502
C    -1.93353  -0.42085  -0.26175
C    -3.03071  -0.20527   0.59489
C    -4.33192  -0.37023   0.12258
C    -4.55619  -0.73171  -1.21025
C    -3.47217  -0.93042  -2.07196
C    -2.16787  -0.78004  -1.60367
N     0.37823  -1.13173   0.04002
C     0.02410  -2.52331  -0.31055
C     1.74888  -0.84822   0.10612
C     2.64023  -1.86224   0.49789
N     3.39531  -2.69436   0.82674
C     2.25804   0.41517  -0.37113
O     1.59283   1.31922  -0.86833
O     3.60166   0.49583  -0.24289
C     4.22038   1.68257  -0.74782
H    -1.41680   4.13078   0.92231
H    -0.94853   3.29429   2.43253
H     0.29986   3.72816   1.23564
H    -1.55121   2.07949  -0.13302
H    -2.85928   0.07376   1.63614
H    -5.17561  -0.21543   0.79850
H    -5.57715  -0.85267  -1.57928
H    -3.64333  -1.19855  -3.11675
H    -1.32441  -0.91874  -2.28197
H     0.22686  -2.70325  -1.37386
H    -1.02649  -2.71300  -0.07897
H     0.65143  -3.19114   0.29234
H     3.82114   2.57543  -0.24423
H     4.06150   1.77737  -1.83243
H     5.29107   1.57852  -0.53473
