35
Generated by autodE on: 2022-07-27. E = -932.865512 Ha
C    -0.49339  -2.63685   2.77523
N     0.08489  -2.00883   1.60191
C    -0.58623  -1.08748   0.90067
O    -1.76034  -0.77611   1.10387
C     0.19119  -0.45923  -0.24683
C     0.80412  -1.36029  -1.22675
C     2.10642  -1.14878  -1.72161
C     2.66831  -2.05660  -2.61732
C     1.94028  -3.17433  -3.03896
C     0.64938  -3.39526  -2.54640
C     0.08774  -2.50472  -1.63454
N     0.22305   0.85373  -0.32671
C     0.66762   1.55227  -1.54864
C    -0.05777   1.66263   0.80617
C     0.46696   1.27573   2.04917
N     0.91246   0.95903   3.08540
C    -1.02183   2.73276   0.79795
O    -1.25247   3.45244   1.76823
O    -1.69246   2.86448  -0.36968
C    -2.63908   3.93390  -0.44734
H    -0.63530  -1.90035   3.58282
H    -1.47031  -3.08017   2.53396
H     0.18245  -3.42628   3.12463
H     1.06455  -2.16906   1.38480
H     2.69018  -0.29335  -1.38158
H     3.68340  -1.89267  -2.98494
H     2.38300  -3.87940  -3.74602
H     0.07971  -4.26862  -2.87042
H    -0.91956  -2.68087  -1.25141
H     1.73500   1.79230  -1.46371
H     0.09694   2.48090  -1.62805
H     0.48376   0.92612  -2.42751
H    -3.43921   3.80208   0.29585
H    -3.05850   3.89278  -1.45982
H    -2.14990   4.90548  -0.28239
