25
Generated by autodE on: 2022-07-27. E = -577.051050 Ha
C    -2.03607   1.50119  -1.81649
C    -2.96496   0.68736  -0.93450
O    -4.20878   0.77738  -1.12202
C    -2.46243  -0.06860   0.14384
O    -1.13569  -0.18863   0.49474
C    -0.13084  -0.50568  -0.26335
C    -0.33904  -1.06531  -1.61774
C     1.17333  -0.36738   0.35861
C     1.29286   0.11747   1.68280
C     2.54444   0.24282   2.27479
C     3.70117  -0.09519   1.55928
C     3.59714  -0.56090   0.24424
C     2.34730  -0.69671  -0.35552
H    -1.89646   1.01127  -2.79416
H    -2.52920   2.46716  -2.00182
H    -1.04465   1.68413  -1.37723
H    -3.10990  -0.35026   0.97406
H    -0.16267  -0.33045  -2.41844
H     0.36154  -1.89636  -1.77907
H    -1.37856  -1.41681  -1.70918
H     0.39569   0.39553   2.23615
H     2.62408   0.61350   3.29898
H     4.68316   0.01208   2.02549
H     4.49677  -0.81771  -0.31895
H     2.28424  -1.05426  -1.38327
