14
Generated by autodE on: 2022-06-17. E = -270.683219 Ha
C    -1.98031  -1.11463   0.59616
C    -0.79590  -0.27926   0.22549
C    -1.03037   1.20158   0.13646
C     0.41051  -0.86315  -0.01280
C     1.63478  -0.16867  -0.38150
O     1.77209   1.04146  -0.54657
H    -2.79762  -0.94883  -0.12772
H    -2.37457  -0.79284   1.57619
H    -1.74713  -2.18754   0.63645
H    -0.83367   1.56717  -0.88441
H    -2.06370   1.45680   0.40984
H    -0.33793   1.75268   0.79157
H     0.49771  -1.95007   0.07452
H     2.51558  -0.84192  -0.51890
