36
Generated by autodE on: 2022-05-29. E = -936.915520 Ha
C    -3.00206  -2.23197  -1.10697
N    -1.94624  -1.24434  -1.01056
C    -1.64733  -0.61278   0.12634
O    -2.25941  -0.73821   1.19253
C    -0.42622   0.31911   0.05688
C    -0.85249   1.61755   0.77572
O    -0.54729   1.92068   1.90816
O    -1.61907   2.36272  -0.01542
C    -2.08703   3.60893   0.52470
O    -0.08506   0.57269  -1.29058
C     1.32446   0.87603  -1.37699
C     1.56426   2.37604  -1.28801
C     1.98971   0.08565  -0.23910
C     2.49848  -1.32910  -0.65770
C     3.17248  -1.93209   0.56647
C     2.17126  -2.25951   1.39288
C     0.89901  -1.86000   0.65844
O     1.26590  -2.06972  -0.71544
C     0.82426  -0.30046   0.72526
H    -2.65631  -3.22932  -0.78693
H    -3.84514  -1.93836  -0.46728
H    -3.34620  -2.29722  -2.14719
H    -1.31559  -1.08805  -1.79195
H    -1.23516   4.25959   0.76948
H    -2.70163   4.06582  -0.25907
H    -2.68729   3.43285   1.42858
H     1.64213   0.50647  -2.36329
H     1.33985   2.76428  -0.28180
H     2.62156   2.59612  -1.50219
H     0.94040   2.91006  -2.01996
H     2.78087   0.67268   0.24184
H     3.03247  -1.37049  -1.61388
H     4.24797  -1.96978   0.74152
H     2.21587  -2.63284   2.41613
H    -0.01845  -2.39829   0.91792
H     0.93235   0.07036   1.74808
