40
Generated by autodE on: 2022-06-17. E = -790.033881 Ha
C     3.79334   0.80085   0.92239
O     2.78397   0.01687   0.27619
C     1.64666   0.64883  -0.04768
O     1.50961   1.84822   0.08001
C     0.60684  -0.31366  -0.66413
C     1.34020  -1.20715  -1.68763
C    -0.08129  -1.21182   0.41815
C     0.31048  -1.04608   1.86148
O     0.87238  -0.09542   2.36805
C    -1.63730  -1.01366   0.21326
C    -2.45417  -1.11986   1.50667
C    -2.13594  -2.10498  -0.74661
C    -1.69830   0.41198  -0.44209
C    -1.65048   1.54055   0.61068
C    -2.96114   0.62082  -1.28638
N    -0.50552   0.38081  -1.29775
C    -0.25565   1.47010  -2.21455
H     3.41054   1.20467   1.87127
H     4.11644   1.63019   0.27684
H     4.63215   0.12095   1.11250
H     1.80917  -0.60145  -2.47769
H     2.12454  -1.80299  -1.20361
H     0.61380  -1.88679  -2.15320
H     0.14861  -2.26649   0.20625
H     0.02452  -1.91761   2.49416
H    -2.11916  -0.43165   2.29457
H    -2.40873  -2.14254   1.91114
H    -3.51118  -0.89484   1.29584
H    -3.22229  -2.03249  -0.90178
H    -1.92746  -3.09736  -0.31807
H    -1.64126  -2.04555  -1.72525
H    -0.83610   1.40949   1.33338
H    -2.59798   1.60492   1.16569
H    -1.49996   2.50673   0.10619
H    -2.97777  -0.02615  -2.17354
H    -3.03079   1.66553  -1.62547
H    -3.85852   0.41252  -0.68443
H    -1.04519   1.52056  -2.98201
H     0.69194   1.29817  -2.74517
H    -0.18480   2.46688  -1.73997
