14
Generated by autodE on: 2022-06-17. E = -270.687347 Ha
C    -2.33886  -0.01614  -0.29790
C    -0.87045   0.27724  -0.35225
C    -0.48729   1.40435  -1.26387
C     0.00144  -0.45515   0.38972
C     1.44204  -0.27569   0.42708
O     2.19254  -0.96409   1.11466
H    -2.71366  -0.25944  -1.30724
H    -2.57518  -0.84695   0.38106
H    -2.89275   0.88186   0.02643
H    -0.83568   1.18323  -2.28707
H    -1.01336   2.32281  -0.95261
H     0.58831   1.61192  -1.29810
H    -0.38029  -1.26015   1.02672
H     1.86791   0.53313  -0.20804
