26
Generated by autodE on: 2022-07-27. E = -519.302173 Ha
C     3.13521   0.44340   1.59319
O     2.31747  -0.32991   0.72810
C     1.05685   0.18726   0.45173
O     0.71166   1.26687   0.97670
C     0.34039  -0.62225  -0.44663
C     0.94931  -1.81113  -1.14249
N    -0.93859  -0.18416  -0.86200
C    -1.17469  -0.07097  -2.31305
C    -1.88687   0.19371  -0.02561
C    -1.78057  -0.09621   1.42310
C    -3.09991   0.90139  -0.53974
H     2.67250   0.57349   2.58504
H     4.07885  -0.10841   1.70229
H     3.34414   1.44184   1.17528
H     1.62562  -1.55412  -1.98090
H     1.54345  -2.40408  -0.43108
H     0.17108  -2.47946  -1.54210
H    -2.14248  -0.50826  -2.58913
H    -0.37659  -0.59226  -2.84773
H    -1.15828   0.98827  -2.60784
H    -1.18836  -1.01160   1.58655
H    -2.78307  -0.18945   1.86402
H    -1.23652   0.71414   1.94087
H    -3.76288   0.20299  -1.08071
H    -2.84043   1.70895  -1.24142
H    -3.66990   1.32840   0.29470
