26
Generated by autodE on: 2022-06-17. E = -519.302168 Ha
C     3.49643   0.56733   0.03195
O     2.40687  -0.23207  -0.40290
C     1.15399   0.12648   0.08127
O     1.05278   1.11247   0.84104
C     0.14428  -0.74264  -0.36699
C     0.42967  -2.00725  -1.13305
N    -1.17423  -0.52043   0.09359
C    -1.85963  -1.64933   0.74899
C    -1.77816   0.65148   0.03426
C    -1.22478   1.74921  -0.79202
C    -3.05273   0.87649   0.78386
H     4.39522   0.14846  -0.44098
H     3.37963   1.61931  -0.27531
H     3.61495   0.53778   1.12745
H     0.79481  -2.84756  -0.51086
H    -0.46641  -2.36008  -1.66672
H     1.20208  -1.82227  -1.89426
H    -1.31026  -2.57133   0.54203
H    -1.87593  -1.48808   1.83664
H    -2.88916  -1.75013   0.38301
H    -2.03403   2.41109  -1.13128
H    -0.49824   2.34309  -0.20876
H    -0.66363   1.33786  -1.64710
H    -3.29052   1.94725   0.81144
H    -2.99814   0.49873   1.81627
H    -3.89376   0.35584   0.29231
