40
Generated by autodE on: 2022-06-17. E = -789.968484 Ha. Imaginary frequency = -317.7 cm-1
C     3.56832   0.84706   1.41350
O     2.69757   0.18678   0.49403
C     1.68197   0.91966  -0.01254
O     1.56281   2.11012   0.24963
C     0.85240   0.15432  -0.95487
C     1.61251  -0.71581  -1.92400
C    -0.37294  -1.68155   0.26207
C     0.57104  -1.67460   1.34381
O     0.47804  -1.13834   2.46008
C    -1.71970  -1.25848   0.24690
C    -2.49715  -1.08379   1.53442
C    -2.57619  -1.81371  -0.87210
C    -1.39441   0.87159  -0.40506
C    -1.06157   1.42366   0.95432
C    -2.71145   1.37037  -0.93730
N    -0.38098   0.64754  -1.32008
C    -0.74154   0.55442  -2.74529
H     3.01602   1.14847   2.31617
H     4.34199   0.11585   1.67721
H     4.02941   1.73496   0.95642
H     2.15340  -0.12234  -2.68391
H     2.36323  -1.29385  -1.37144
H     0.95745  -1.42478  -2.44646
H    -0.02424  -2.24608  -0.60413
H     1.50462  -2.23617   1.10432
H    -1.86954  -0.76625   2.37141
H    -2.94597  -2.05782   1.80220
H    -3.33314  -0.37811   1.41410
H    -3.47023  -1.20048  -1.05535
H    -2.93675  -2.81990  -0.58976
H    -2.02079  -1.91721  -1.81413
H    -0.32061   0.83229   1.50036
H    -1.97482   1.47362   1.55673
H    -0.66178   2.44463   0.85175
H    -3.07797   0.82113  -1.81161
H    -2.64027   2.43934  -1.21087
H    -3.46765   1.29082  -0.14472
H    -1.26742  -0.38034  -2.98358
H     0.16585   0.61810  -3.35129
H    -1.37863   1.40274  -3.01562
