43
Generated by autodE on: 2022-06-02. E = -1273.464205 Ha
C     0.80436   3.96026   1.64021
O     0.70908   2.93561   0.63860
C     1.15223   1.72946   0.97726
O     1.72999   1.46660   2.00776
C     0.88678   0.73339  -0.14629
N     1.83489  -0.37460  -0.15640
C     3.00321  -0.28650  -0.87219
C     3.73023  -1.57418  -1.13473
O     3.40231   0.81810  -1.23147
N     1.20392  -1.60393   0.10188
C     1.24420  -1.95083   1.53112
N    -0.09961  -1.37271  -0.36428
C    -0.81854  -2.28988  -1.08064
C    -0.15089  -3.61155  -1.33002
O    -1.95070  -2.00720  -1.46570
C    -0.50642   0.00862  -0.11864
C    -1.29190   0.16853   1.19768
O    -1.30564   1.19039   1.84687
O    -1.95390  -0.93297   1.50477
C    -2.76850  -0.89195   2.69033
C    -1.36194   0.52876  -1.30272
O    -0.92433   0.62407  -2.42385
O    -2.56546   0.90682  -0.90908
C    -3.46205   1.38564  -1.92797
H     0.39385   4.86812   1.18428
H     1.85280   4.11791   1.92996
H     0.21460   3.67543   2.52345
H     0.98025   1.28078  -1.09135
H     3.92550  -2.11491  -0.19706
H     3.11469  -2.22884  -1.77048
H     4.67691  -1.34670  -1.63932
H     2.28736  -2.17792   1.78846
H     0.88724  -1.13918   2.18540
H     0.63584  -2.85185   1.68137
H     0.05217  -4.12767  -0.37946
H    -0.81624  -4.22566  -1.94856
H     0.81276  -3.46341  -1.83906
H    -3.22056  -1.88588   2.77597
H    -2.14471  -0.67439   3.56838
H    -3.54560  -0.12195   2.58551
H    -3.65767   0.58261  -2.65242
H    -4.38326   1.66774  -1.40703
H    -3.02452   2.25396  -2.43933
