19
Generated by autodE on: 2022-06-02. E = -510.830411 Ha
C    -2.80946  -0.70984   0.00624
C    -1.43084  -0.27713   0.40345
O    -0.73614  -0.91612   1.19302
N    -1.05012   0.92578  -0.16552
N     0.19977   1.29504  -0.15049
C     0.38351   2.75979  -0.23777
N     1.26937   0.61052  -0.08302
C     1.27471  -0.78380  -0.30907
C     2.18434  -1.53094   0.61153
O     0.72493  -1.26166  -1.28612
H    -2.73071  -1.19997  -0.98036
H    -3.19930  -1.43832   0.72889
H    -3.49052   0.14524  -0.09756
H     1.45529   2.97364  -0.26603
H    -0.11662   3.10497  -1.15089
H    -0.09605   3.21278   0.63887
H     2.02614  -1.21306   1.65157
H     3.22761  -1.29442   0.34314
H     2.01872  -2.60987   0.50249
