24
Generated by autodE on: 2022-06-02. E = -762.577753 Ha
C     4.16396  -1.62443   0.13122
O     3.29708  -0.49046  -0.02637
C     1.99277  -0.70573   0.14357
O     1.51186  -1.78971   0.41929
C     1.21278   0.54138  -0.04158
C    -0.12769   0.56048   0.01459
C    -0.85264   1.85420  -0.18295
O    -0.31222   2.92264  -0.37596
O    -2.17213   1.67645  -0.12838
C    -2.99581   2.84050  -0.30467
C    -0.96254  -0.65527   0.31813
O    -1.37878  -0.91070   1.42636
O    -1.21384  -1.36694  -0.77438
C    -1.97497  -2.57337  -0.59280
H     3.90931  -2.40413  -0.60104
H     5.18029  -1.25405  -0.04329
H     4.07468  -2.03367   1.14788
H     1.76143   1.46566  -0.23037
H    -4.03096   2.49051  -0.22652
H    -2.77992   3.57958   0.47985
H    -2.81451   3.28713  -1.29264
H    -2.95385  -2.34710  -0.14719
H    -1.42396  -3.26889   0.05656
H    -2.10008  -3.00353  -1.59272
