43
Generated by autodE on: 2022-06-02. E = -1273.393302 Ha. Imaginary frequency = -244.7 cm-1
C     1.28533   3.55436   2.29489
O     0.76431   2.81401   1.17735
C     1.18593   1.55648   1.04810
O     1.99746   1.03770   1.77889
C     0.54498   0.97271  -0.19708
N     1.48334  -0.81459  -0.28997
C     2.86737  -0.76348  -0.41328
C     3.62070  -2.06144  -0.28128
O     3.39933   0.28889  -0.72827
N     0.80757  -1.66112   0.43387
C     1.23122  -2.05574   1.79644
N    -0.38111  -1.99923   0.09370
C    -0.71100  -2.12433  -1.28499
C    -2.18773  -2.27209  -1.49760
O     0.11907  -2.26416  -2.16183
C    -0.82633   0.72768  -0.27941
C    -1.65015   0.49179   0.92569
O    -2.85623   0.33034   0.97231
O    -0.87751   0.43976   2.02517
C    -1.50785   0.10253   3.26313
C    -1.39378   0.79580  -1.64719
O    -0.69944   0.78036  -2.65211
O    -2.72341   0.89804  -1.69312
C    -3.31827   0.95918  -2.99658
H     0.99120   3.07012   3.23705
H     0.84223   4.55399   2.22455
H     2.38116   3.61541   2.23663
H     1.02440   1.31269  -1.11736
H     3.02600  -2.91664  -0.62974
H     4.54994  -1.98136  -0.85957
H     3.88381  -2.22087   0.77647
H     1.73238  -3.03046   1.72370
H     0.32787  -2.15228   2.40704
H     1.90206  -1.29017   2.19409
H    -2.44062  -2.00756  -2.53178
H    -2.44293  -3.33350  -1.33568
H    -2.76776  -1.67566  -0.78291
H    -0.70735   0.08655   4.01168
H    -2.26461   0.85385   3.53073
H    -1.98284  -0.88686   3.19164
H    -2.96922   1.85012  -3.53827
H    -3.07042   0.05885  -3.57656
H    -4.39991   1.01648  -2.82871
