15
Generated by autodE on: 2022-05-30. E = -417.109062 Ha
C     3.51759   0.56511  -0.43024
C     2.13503   0.32329  -0.10617
N     1.02687   0.13022   0.17147
C    -0.30941  -0.07983   0.30594
C    -0.83068  -0.29929   1.59487
N    -1.28728  -0.48472   2.65606
C    -1.09577  -0.05977  -0.90963
C    -2.58169  -0.28936  -0.75799
O    -0.57096   0.13650  -2.01294
H     3.88994   1.43818   0.12821
H     3.57948   0.77730  -1.51002
H     4.12707  -0.32270  -0.20060
H    -3.05682  -0.25249  -1.74679
H    -2.77931  -1.26755  -0.29135
H    -3.02916   0.47824  -0.10658
