37
Generated by autodE on: 2022-05-30. E = -1289.803081 Ha. Imaginary frequency = -348.3 cm-1
C     4.74831   1.94767  -0.72131
O     3.43026   1.54551  -0.32079
C     3.18313   0.23099  -0.29925
O     4.00241  -0.61943  -0.59110
C     1.79821  -0.03846   0.11962
C     1.10072  -1.18486   0.05765
C     1.49862  -2.53170  -0.45690
F     2.46981  -3.09211   0.28308
F     1.94036  -2.48353  -1.72647
F     0.44966  -3.37621  -0.43919
C    -0.33286  -0.80631   0.50399
O    -0.02183   0.19878   1.47729
C     0.77241   1.01477   0.60444
C    -0.22939   1.24074  -0.55651
C    -1.57350   2.72030   0.51725
C    -0.99592   4.05416   0.44136
N    -2.47966   2.03498   0.88510
C    -3.12033   0.87181   0.67570
C    -3.23763  -0.05303   1.73727
N    -3.32225  -0.84612   2.59022
C    -3.78369   0.69968  -0.61941
C    -4.50707  -0.60460  -0.83826
O    -3.73116   1.58105  -1.47775
C    -0.91112   0.05753  -0.63073
H     4.75572   3.04262  -0.67854
H     5.49944   1.53287  -0.03370
H     4.95925   1.60358  -1.74414
H    -0.95228  -1.60974   0.91265
H     1.18121   1.89400   1.10996
H    -0.07727   1.96137  -1.35959
H    -1.12314   4.41586  -0.59203
H    -1.51267   4.73702   1.13299
H     0.08051   4.01934   0.66209
H    -3.86151  -1.46168  -0.59297
H    -5.38845  -0.65864  -0.17838
H    -4.83203  -0.66969  -1.88446
H    -1.50150  -0.33389  -1.45566
