48
Generated by autodE on: 2022-06-05. E = -1352.642545 Ha
C    -3.14640  -3.18305   2.12141
N    -2.97313  -2.06383   1.21433
C    -2.25816  -2.15196   0.09485
O    -1.72005  -3.16880  -0.34585
C    -2.07323  -0.82234  -0.67094
C    -2.35925  -1.08685  -2.09963
N    -2.59512  -1.26701  -3.22016
O    -2.94628   0.17383  -0.17553
C    -2.35859   1.47784  -0.32347
C    -2.92972   2.37072   0.77026
C    -2.76058   2.01380  -1.64868
N    -3.08358   2.43747  -2.67874
C    -0.81709   1.26141  -0.31432
C    -0.13198   1.46130   1.06847
O    -0.52326   0.27552   1.76389
C     0.06124  -0.64472   0.84796
C     1.49910  -0.13009   0.71402
C     2.59080  -1.02980   0.35204
C     3.94929  -0.69048   0.52470
C     4.95476  -1.58695   0.16595
C     4.63176  -2.83476  -0.37767
C     3.28954  -3.18725  -0.55087
C     2.27818  -2.30182  -0.18173
C     1.36335   1.21995   0.85516
C     2.28878   2.33128   0.61834
O     3.50731   2.30529   0.65299
O     1.59987   3.45470   0.34068
C     2.36784   4.63484   0.07392
C    -0.62873  -0.27099  -0.50595
H    -4.08602  -3.05975   2.67474
H    -3.18327  -4.11902   1.54925
H    -2.31503  -3.24644   2.84260
H    -3.31018  -1.14107   1.47626
H    -2.70248   1.93286   1.75039
H    -4.01989   2.44586   0.65543
H    -2.49318   3.37679   0.70454
H    -0.33292   1.86832  -1.08552
H    -0.40238   2.36667   1.61611
H    -0.05439  -1.67593   1.18941
H     4.20384   0.28009   0.94393
H     6.00099  -1.30929   0.31367
H     5.42338  -3.53244  -0.66061
H     3.02699  -4.16015  -0.97220
H     1.23920  -2.60244  -0.32544
H     3.01159   4.48549  -0.80508
H     2.99149   4.89323   0.94206
H     1.63987   5.43085  -0.12066
H    -0.00801  -0.54821  -1.36280
