19
Generated by autodE on: 2022-07-27. E = -585.838459 Ha
C     0.39693  -2.52122   2.92967
N     0.26854  -1.42034   1.99556
C     0.06382  -1.64060   0.68256
O    -0.03625  -2.77467   0.18855
C    -0.04298  -0.45925  -0.18831
C    -0.25630  -0.62030  -1.56886
N    -0.43218  -0.78504  -2.71225
O     0.07877   0.73043   0.38993
C     0.05146   1.96633   0.01180
C     0.25104   3.00667   1.05175
C    -0.16010   2.32267  -1.34521
N    -0.32891   2.71168  -2.43142
H    -0.50006  -3.16031   2.91944
H     0.52784  -2.11361   3.93916
H     1.26565  -3.15495   2.68866
H     0.34859  -0.46766   2.33434
H     1.14425   3.61189   0.82189
H    -0.61292   3.69141   1.08097
H     0.37514   2.52726   2.03172
