19
Generated by autodE on: 2022-06-05. E = -585.840637 Ha
C     3.51755  -0.39769  -1.05067
N     2.10651  -0.33394  -0.72565
C     1.65658   0.43860   0.28138
O     2.39929   1.12607   0.99885
C     0.20137   0.44786   0.52093
C    -0.31547   1.23954   1.56691
N    -0.67531   1.91499   2.44921
O    -0.53595  -0.30633  -0.28237
C    -1.80419  -0.55173  -0.39709
C    -2.84884   0.04425   0.46338
C    -2.09868  -1.45940  -1.44616
N    -2.38037  -2.20357  -2.29895
H     3.90092   0.58169  -1.38036
H     4.11181  -0.71707  -0.18037
H     3.66013  -1.12248  -1.86105
H     1.44334  -0.85958  -1.28487
H    -3.83626  -0.31675   0.15140
H    -2.82653   1.14463   0.38988
H    -2.68269  -0.22869   1.51925
