29
Generated by autodE on: 2022-06-05. E = -766.672208 Ha
C     3.68595  -2.24384   0.23596
O     2.91508  -1.04983   0.40794
C     1.57352  -1.19181   0.43478
O     1.03380  -2.28165   0.32203
C     0.93030   0.10782   0.60344
C    -0.31459   0.55390   0.28280
C    -1.52376  -0.06654  -0.24267
C    -2.41598   0.71917  -1.00638
C    -3.57786   0.16403  -1.54036
C    -3.88775  -1.17905  -1.30266
C    -3.02353  -1.96355  -0.53083
C    -1.85164  -1.41880  -0.00825
C    -0.20081   2.10065   0.46396
C     0.70138   2.61887  -0.67467
C     1.92275   2.17294  -0.36572
C     1.73445   1.38819   0.94992
O     0.69892   2.15988   1.57655
H     3.44438  -2.72728  -0.72214
H     3.49324  -2.95082   1.05641
H     4.73645  -1.93039   0.24592
H    -2.18964   1.76912  -1.19986
H    -4.24784   0.78437  -2.13992
H    -4.80324  -1.61167  -1.71289
H    -3.26595  -3.01029  -0.33293
H    -1.17976  -2.03242   0.58754
H    -1.13600   2.63440   0.65913
H     0.35287   3.16532  -1.55015
H     2.85856   2.25473  -0.91729
H     2.60739   1.25603   1.59543
