48
Generated by autodE on: 2022-06-05. E = -1352.526592 Ha. Imaginary frequency = -45.6 cm-1
C    -2.18472  -3.02475   2.30978
N    -2.59961  -1.93189   1.45203
C    -2.70000  -2.10581   0.11623
O    -2.60804  -3.20729  -0.44475
C    -2.91351  -0.89260  -0.69175
C    -3.04497  -1.00737  -2.09099
N    -3.14489  -1.14290  -3.24626
O    -3.12175   0.24104  -0.03304
C    -3.10306   1.49277  -0.38520
C    -3.24881   2.49447   0.70308
C    -3.20990   1.89058  -1.74599
N    -3.29908   2.31926  -2.82646
C    -0.40949   1.26369  -0.78242
C     0.01036   1.46677   0.68610
O    -0.48489   0.25494   1.27566
C     0.18278  -0.62616   0.36514
C     1.65672  -0.15167   0.54630
C     2.77208  -1.07265   0.37459
C     4.05160  -0.83247   0.91939
C     5.08305  -1.75149   0.73461
C     4.86679  -2.92194  -0.00115
C     3.60340  -3.17482  -0.54542
C     2.56313  -2.26773  -0.35086
C     1.53319   1.18823   0.75623
C     2.51414   2.27044   0.78460
O     3.71360   2.18297   0.99476
O     1.91411   3.45072   0.52842
C     2.75518   4.60947   0.50795
C    -0.29644  -0.06768  -0.98817
H    -2.35681  -2.74377   3.35652
H    -2.76879  -3.92707   2.08415
H    -1.11518  -3.26690   2.18005
H    -2.43976  -0.98507   1.78515
H    -2.87982   2.06941   1.64595
H    -4.30834   2.78060   0.82776
H    -2.68209   3.40354   0.45617
H    -0.52735   2.06207  -1.51213
H    -0.34735   2.36007   1.20396
H    -0.01220  -1.67805   0.58809
H     4.22365   0.07841   1.48817
H     6.06502  -1.55387   1.17076
H     5.67914  -3.63818  -0.14475
H     3.42504  -4.08684  -1.11938
H     1.58393  -2.48363  -0.78162
H     3.52416   4.51622  -0.27294
H     3.24433   4.74985   1.48311
H     2.09630   5.45796   0.28946
H    -0.31256  -0.62507  -1.92232
