12
Generated by autodE on: 2022-06-17. E = -411.042491 Ha
C    -2.28041   0.87508  -0.48270
C    -1.20315   0.11442   0.21454
O    -0.75357   0.37856   1.31578
N    -0.79585  -1.05529  -0.47191
N     0.41681  -1.43435  -0.46175
N     1.55190  -0.84538  -0.23285
C     1.59646   0.46124  -0.02506
N     1.81386   1.60293   0.11337
H    -3.06668   0.19350  -0.83913
H    -1.84297   1.36397  -1.36992
H    -2.69739   1.63572   0.18877
H     0.55120  -2.41973  -0.73669
