35
Generated by autodE on: 2022-06-17. E = -762.561014 Ha. Imaginary frequency = -415.8 cm-1
C    -2.26264  -1.26256  -2.74824
C    -1.43263  -0.24348  -2.02483
O    -0.28449   0.05269  -2.38521
N    -2.02325   0.28379  -0.89584
N    -1.21016   1.09735  -0.25665
N    -1.51825   1.29012   1.01982
C    -0.74716   2.18089   1.64903
N    -0.13833   2.95324   2.27963
C    -1.46527  -0.41887   1.98212
C    -1.24570  -1.44155   1.02484
C    -2.33687  -2.43619   0.73609
C     0.02305  -1.59012   0.39711
C     1.06746  -0.69956   0.50756
C     2.29642  -0.81441  -0.22328
C     3.35453   0.04120  -0.14540
C     4.58691  -0.19714  -0.96498
C     3.39777   1.25946   0.72853
H    -2.17498  -1.11290  -3.83440
H    -3.31503  -1.22767  -2.44121
H    -1.86120  -2.26520  -2.52098
H    -0.21841   1.12904  -0.56760
H    -0.62981  -0.11552   2.61601
H    -2.44242  -0.37956   2.46643
H    -2.29611  -3.26298   1.46801
H    -3.33001  -1.97271   0.82140
H    -2.23342  -2.87847  -0.26460
H     0.13127  -2.41846  -0.31062
H     0.99016   0.12163   1.22286
H     2.37381  -1.66303  -0.91172
H     4.77285   0.65724  -1.64018
H     4.51629  -1.11328  -1.56844
H     5.47648  -0.26936  -0.31413
H     2.45707   1.47324   1.25160
H     3.66450   2.14416   0.12500
H     4.19674   1.15341   1.48364
