40
Generated by autodE on: 2022-06-15. E = -8809.411819 Ha
C    -2.85835   3.24185  -0.68965
N    -2.53743   1.88027  -0.29619
C    -1.46380   1.26509  -0.77957
O    -0.71748   1.77268  -1.62143
C    -1.07155  -0.15279  -0.26593
Br   -2.57068  -0.99068   0.68836
C    -0.53545  -1.00511  -1.47378
C    -0.80933  -2.50927  -1.43233
C    -1.13207  -0.53482  -2.82092
C    -0.20655  -0.41489  -3.98928
O    -2.33775  -0.38615  -2.89345
O     0.89193  -0.82585  -1.44454
C     1.34578   0.05150  -0.44704
C     2.70264  -0.43463   0.12207
O     3.30314   0.19506   0.96068
O     3.11407  -1.55277  -0.44560
C     4.36731  -2.08485   0.02319
C     1.70574   1.45750  -1.02364
O     1.83378   2.46138  -0.37054
O     2.03524   1.33515  -2.30370
C     2.42523   2.54193  -2.97780
C     0.20665  -0.01033   0.62954
Br    0.07433   1.44875   1.90234
Br    0.52158  -1.65400   1.71549
H    -2.09228   3.94593  -0.32780
H    -2.91285   3.32141  -1.78485
H    -3.82909   3.51149  -0.25796
H    -3.09813   1.42619   0.41637
H    -0.27014  -2.97242  -2.27128
H    -1.87993  -2.71313  -1.55095
H    -0.44785  -2.95352  -0.49843
H     0.45011   0.45335  -3.83423
H    -0.79125  -0.29039  -4.90958
H     0.44579  -1.29827  -4.06089
H     5.16971  -1.34801  -0.12019
H     4.28940  -2.34572   1.08832
H     4.55419  -2.98130  -0.57779
H     1.59044   3.25721  -2.97374
H     3.30034   2.99013  -2.48644
H     2.67053   2.24735  -4.00410
