27
Generated by autodE on: 2022-07-27. E = -801.842840 Ha
C     0.81386  -3.05378   2.78164
O     0.29715  -2.17930   1.77320
C     1.05902  -1.11064   1.46689
O     2.11694  -0.86557   2.02990
C     0.47064  -0.28810   0.42032
O    -0.63069  -0.80907  -0.13536
C    -1.58956  -0.31343  -0.85271
C    -2.54407  -1.31440  -1.39000
C    -1.85042   1.14333  -0.88690
C    -3.07258   1.59087  -1.63501
O    -1.14937   1.92139  -0.24489
C     1.20573   0.83140  -0.17511
O     1.98881   1.54795   0.42162
O     0.99355   0.91135  -1.49740
C     1.57760   2.02751  -2.17851
H     1.78123  -3.47795   2.47387
H     0.94133  -2.51791   3.73387
H     0.07239  -3.85333   2.89655
H    -2.23049  -2.32434  -1.09743
H    -2.57777  -1.25202  -2.49106
H    -3.56809  -1.12633  -1.02849
H    -3.03270   1.23512  -2.67679
H    -3.12747   2.68631  -1.61210
H    -3.98368   1.16742  -1.18249
H     1.24595   2.97124  -1.72232
H     2.67534   1.97070  -2.14675
H     1.22710   1.96566  -3.21535
