28
Generated by autodE on: 2022-06-09. E = -616.392192 Ha
C    -1.98319   2.28090  -1.42802
C    -0.57887   1.85178  -1.02658
O     0.38790   2.61328  -1.28000
C    -0.43705   0.61260  -0.34843
O    -1.66215  -0.06888  -0.22926
C    -2.07992  -0.75842   0.76791
C    -1.32204  -0.85080   2.02398
C    -3.38317  -1.42756   0.57843
C     0.80326  -0.09205  -0.05795
C     0.88598  -1.50527  -0.10157
C     2.09358  -2.16802   0.12118
C     3.26235  -1.44919   0.39121
C     3.20048  -0.05120   0.43164
C     1.99739   0.61932   0.21485
H    -2.59592   2.50861  -0.54015
H    -2.51100   1.49589  -1.99123
H    -1.90450   3.18563  -2.04591
H    -0.50681  -1.59298   1.93731
H    -0.83578   0.11726   2.23400
H    -1.98524  -1.15527   2.84326
H    -3.82632  -1.17199  -0.39192
H    -3.23807  -2.52100   0.64375
H    -4.06285  -1.15491   1.40259
H    -0.00106  -2.09635  -0.33969
H     2.11930  -3.25988   0.07547
H     4.20625  -1.96975   0.56819
H     4.10275   0.52853   0.64436
H     1.96637   1.70643   0.24852
