37
Generated by autodE on: 2022-06-09. E = -937.836028 Ha
C     5.01486   0.61020  -0.96880
O     4.00580   0.03933  -0.11434
C     2.74584   0.16887  -0.50174
O     2.37920   0.71784  -1.51341
C     1.77686  -0.40567   0.55675
C     2.36732  -1.58149   1.21196
N     2.79974  -2.50820   1.75858
C     0.47197  -0.70338  -0.02921
C    -0.69106  -0.51849  -0.30639
C    -2.00581   0.11049  -0.32456
C    -2.99408  -0.61871   0.64443
C    -2.83726  -2.10152   0.78521
O    -3.85547   0.01718   1.21509
C    -2.66410   0.01992  -1.72845
C    -3.80968   0.94370  -2.01094
O    -2.24886  -0.78716  -2.53699
C    -1.78523   1.58637   0.12478
C    -0.89913   1.77692   1.37351
C     0.63966   1.89101   1.18239
C     1.52144   0.71710   1.64588
H     4.85956   1.69410  -1.06171
H     4.97658   0.14154  -1.96188
H     5.97271   0.39941  -0.48094
H    -3.72228  -2.52962   1.27285
H    -1.94458  -2.30849   1.39785
H    -2.66521  -2.56595  -0.19799
H    -4.51035   0.97763  -1.16424
H    -3.42110   1.96608  -2.14876
H    -4.32245   0.62687  -2.92800
H    -2.77811   2.01065   0.32304
H    -1.35425   2.14218  -0.72206
H    -1.12922   0.99718   2.11867
H    -1.23355   2.72126   1.82928
H     0.97728   2.75294   1.77756
H     0.87471   2.14982   0.13762
H     2.51146   1.07900   1.95955
H     1.06417   0.21848   2.51305
