65
Generated by autodE on: 2022-06-09. E = -1554.229427 Ha. Imaginary frequency = -238.2 cm-1
C     3.99272  -3.11179  -8.52097
O     5.14374  -2.25500  -8.64994
C     6.24466  -2.61834  -8.01516
O     6.33702  -3.57764  -7.28248
C     7.44198  -1.73580  -8.43555
C     8.66001  -2.28939  -7.81799
N     9.65761  -2.67706  -7.37132
C     7.51757  -1.93284  -9.99781
C     8.75416  -1.46439 -10.75720
C     8.86025   0.02805 -11.10012
C     9.58287   0.90342 -10.06731
C     8.67978   1.73985  -9.10589
C     7.76021   2.65728  -9.94561
C     8.40183   3.53783 -10.98303
O     6.55090   2.60828  -9.82029
C     9.63583   2.59971  -8.24030
C    10.75690   1.88627  -7.53798
O     9.49468   3.80660  -8.16374
C     7.85807   0.83542  -8.26067
C     7.38938  -0.29424  -8.05462
C     5.95096   0.06209  -5.92110
C     4.68752  -0.55355  -6.29191
C     3.80271   0.18890  -7.26912
O     4.34449  -1.64184  -5.80724
C     6.64656  -0.39804  -4.69514
C     6.57840   0.38295  -3.52436
C     7.17445  -0.05054  -2.33870
C     7.83020  -1.28452  -2.29192
C     7.87162  -2.08435  -3.43853
C     7.28364  -1.64786  -4.62741
O     5.97203   1.36706  -6.27596
C     6.96082   2.21504  -6.34826
C     8.17989   2.11118  -5.49766
C     6.52091   3.55900  -6.82173
H     4.24402  -4.12204  -8.87302
H     3.66633  -3.13958  -7.47499
H     3.22000  -2.66587  -9.15628
H     7.40643  -3.01688 -10.15867
H     6.61937  -1.45062 -10.40519
H     8.72405  -2.01868 -11.70863
H     9.67328  -1.80182 -10.24886
H     9.43129   0.10603 -12.03751
H     7.85710   0.42441 -11.33035
H    10.24928   1.61311 -10.57974
H    10.22792   0.26655  -9.44779
H     9.41420   3.85875 -10.71225
H     7.75594   4.40668 -11.16796
H     8.46766   2.95699 -11.91895
H    10.46015   0.88717  -7.19046
H    11.58351   1.75641  -8.25614
H    11.11975   2.49952  -6.70363
H     3.37245   1.07510  -6.77385
H     2.98445  -0.46748  -7.59111
H     4.36949   0.54737  -8.13959
H     6.04269   1.33411  -3.54556
H     7.11782   0.57587  -1.44519
H     8.29775  -1.62506  -1.36507
H     8.37152  -3.05563  -3.41170
H     7.31901  -2.28691  -5.50645
H     8.90363   2.87136  -5.80683
H     7.90125   2.34193  -4.45372
H     8.63910   1.11782  -5.50903
H     5.63851   3.48043  -7.46760
H     7.32996   4.07569  -7.35072
H     6.26335   4.17234  -5.93754
