51
Generated by autodE on: 2022-06-21. E = -1133.601370 Ha
C     5.19696   0.43923  -1.23734
C     4.21276   0.27834  -0.32985
C     4.50576   0.01098   1.12302
C     2.81025   0.34456  -0.75435
C     1.74870   0.21557   0.06097
C     0.33508   0.26453  -0.41896
C    -0.52984  -0.99001  -0.08833
C     0.01176  -1.84588   1.07939
O     1.02498  -2.53263   0.91053
N    -0.69935  -1.78227   2.20906
C    -0.35919  -2.49589   3.42207
C    -0.57211  -1.94742  -1.29121
O     0.26849  -1.99498  -2.16196
O    -1.62101  -2.76276  -1.21779
C    -1.78029  -3.70362  -2.29049
O    -1.82741  -0.51623   0.22488
C    -1.96660   0.87929  -0.08323
C    -3.04039   1.43765   0.84047
C    -2.39867   0.98950  -1.56339
C    -3.18741   2.18858  -2.00672
O    -2.12157   0.09023  -2.33979
C    -0.51887   1.45845   0.11453
C    -0.24589   1.75806   1.59415
C    -0.21943   2.71807  -0.70130
H     6.25148   0.38637  -0.95221
H     4.96930   0.62786  -2.29100
H     5.58733  -0.04858   1.30910
H     4.04037  -0.93496   1.44694
H     4.08609   0.80314   1.76536
H     2.63672   0.49201  -1.82658
H     1.90453   0.06395   1.13109
H     0.35788   0.34385  -1.51235
H    -1.51996  -1.18232   2.18484
H    -1.16843  -3.18371   3.71248
H    -0.18448  -1.79367   4.25181
H     0.55505  -3.07611   3.24871
H    -0.90347  -4.36327  -2.35818
H    -2.67754  -4.28587  -2.05165
H    -1.91482  -3.17064  -3.24290
H    -2.80408   1.19252   1.88331
H    -3.11452   2.52893   0.74477
H    -4.01896   0.99843   0.59690
H    -2.84908   3.11624  -1.52796
H    -3.14212   2.27507  -3.10021
H    -4.23851   2.03553  -1.70797
H    -0.87291   2.58992   1.94426
H     0.80276   2.06159   1.72388
H    -0.42916   0.89019   2.24126
H    -0.85231   3.55965  -0.38160
H    -0.35826   2.56394  -1.78183
H     0.83059   3.00867  -0.54454
