23
Generated by autodE on: 2022-06-21. E = -351.521385 Ha
C    -3.76492   0.34270  -0.09034
C    -2.56875  -0.28578  -0.09244
C    -2.47296  -1.78784  -0.17637
C    -1.33477   0.49339  -0.01250
C    -0.07723  -0.01583  -0.00565
C     1.11486   0.80321   0.07729
C     2.40222   0.37418   0.09280
C     3.53783   1.35381   0.18539
C     2.81845  -1.06773   0.02282
H    -3.83106   1.43341  -0.02963
H    -4.70343  -0.21554  -0.14905
H    -1.94701  -2.20220   0.69978
H    -3.46965  -2.24804  -0.23053
H    -1.89858  -2.10014  -1.06437
H    -1.45845   1.58147   0.04690
H     0.05342  -1.09968  -0.06481
H     0.94232   1.88485   0.13418
H     3.18637   2.39480   0.23564
H     4.21295   1.25428  -0.68360
H     4.15772   1.15066   1.07719
H     3.41927  -1.33491   0.91012
H     1.97677  -1.76902  -0.04332
H     3.47370  -1.23381  -0.85052
