28
Generated by autodE on: 2022-06-21. E = -781.993060 Ha
C    -3.01705   2.73169  -0.86507
N    -2.06667   1.66945  -1.12440
C    -1.17436   1.29712  -0.17875
O    -1.00990   1.93785   0.87519
C    -0.43678   0.04824  -0.42009
O     0.59244  -0.28524   0.37817
C     1.52277   0.43952   0.90646
C     1.77462   1.84244   0.55712
C     2.42746  -0.34092   1.79269
C     2.11559  -1.79438   2.00879
O     3.37319   0.23006   2.32272
C    -0.94131  -1.05853  -1.21173
O    -1.86815  -0.96371  -2.01467
O    -0.26896  -2.20671  -1.01881
C    -0.70550  -3.33737  -1.78293
H    -3.58459   2.93196  -1.78246
H    -3.72720   2.47050  -0.06105
H    -2.49607   3.65285  -0.56588
H    -2.26152   0.98700  -1.85536
H     1.09323   2.52672   1.08907
H     1.57169   1.98531  -0.52004
H     2.81504   2.08994   0.80006
H     1.18874  -1.89007   2.59840
H     1.93840  -2.30718   1.05174
H     2.94464  -2.26476   2.55192
H    -1.74922  -3.58953  -1.54448
H    -0.61794  -3.13469  -2.86040
H    -0.04427  -4.16456  -1.49965
