28
Generated by autodE on: 2022-07-27. E = -781.981390 Ha
C     1.67163  -1.98530   3.35930
N     1.05909  -1.08152   2.40864
C     0.90485  -1.43104   1.11136
O     1.22779  -2.55205   0.68696
C     0.31874  -0.40179   0.22941
O     0.24019   0.80068   0.77925
C    -0.37006   1.90848   0.43415
C    -0.02978   3.08469   1.27954
C    -1.49859   1.88147  -0.49196
C    -2.24609   3.17378  -0.68194
O    -1.87585   0.82769  -1.01578
C     0.24983  -0.54177  -1.23432
O     0.59966   0.34204  -1.99856
O    -0.16500  -1.74274  -1.63454
C    -0.16083  -1.97902  -3.05034
H     1.11239  -2.93212   3.42632
H     1.67699  -1.50937   4.34736
H     2.70957  -2.22902   3.07842
H     0.79220  -0.15042   2.70771
H     0.74411   2.80940   2.00792
H    -0.91261   3.46925   1.81647
H     0.35184   3.91079   0.65631
H    -1.56136   3.96925  -1.01621
H    -3.03798   3.02524  -1.42688
H    -2.69497   3.51008   0.26672
H    -0.82700  -1.26610  -3.55718
H    -0.52622  -3.00346  -3.18516
H     0.85660  -1.88158  -3.45584
