51
Generated by autodE on: 2022-06-21. E = -1133.505510 Ha. Imaginary frequency = -231.7 cm-1
C     4.51418  -1.58007   1.76926
C     3.46083  -0.73649   1.83486
C     3.08108  -0.05198   3.12180
C     2.64807  -0.49523   0.64498
C     1.56676   0.31860   0.58807
C     0.77721   0.51349  -0.61465
C    -0.79902  -1.28699  -0.33535
C     0.02235  -2.25022   0.43195
O     0.76962  -3.03973  -0.17073
N    -0.07219  -2.20251   1.77177
C     0.77170  -3.01998   2.61966
C    -1.08639  -1.74562  -1.74694
O    -0.37385  -1.55959  -2.71005
O    -2.14914  -2.55664  -1.75006
C    -2.55520  -3.06966  -3.02786
O    -1.62333  -0.56612   0.40365
C    -2.27590   0.57289   0.17286
C    -2.67008   1.27693   1.42870
C    -2.86302   0.85568  -1.11456
C    -3.67161   2.12317  -1.23515
O    -2.72752   0.09463  -2.08575
C    -0.01095   1.64241  -0.83836
C    -0.09394   2.77338   0.15014
C    -0.34977   1.99137  -2.26160
H     5.13275  -1.79034   2.64610
H     4.77822  -2.08228   0.83363
H     3.08652   1.04453   3.00735
H     3.77201  -0.31906   3.93364
H     2.06029  -0.33277   3.42934
H     2.94351  -1.03925  -0.25858
H     1.26168   0.86179   1.48527
H     1.07966  -0.06265  -1.49170
H    -0.64831  -1.47764   2.18576
H     0.56384  -4.09163   2.47054
H     0.57117  -2.76708   3.66765
H     1.83849  -2.84944   2.40765
H    -3.44035  -3.68778  -2.83851
H    -1.75422  -3.67718  -3.47281
H    -2.80745  -2.23980  -3.70367
H    -1.96015   1.03626   2.23201
H    -2.67658   2.36533   1.28436
H    -3.68309   0.98634   1.76040
H    -3.96429   2.26157  -2.28388
H    -3.10480   3.00045  -0.88866
H    -4.57789   2.05607  -0.61087
H    -1.00580   3.36925  -0.00006
H    -0.06156   2.44537   1.19674
H     0.76195   3.45670  -0.00761
H    -1.22260   2.65416  -2.33729
H    -0.52317   1.09880  -2.87635
H     0.50288   2.54080  -2.70269
