51
Generated by autodE on: 2022-12-30. E = -1279.807978 Ha
C    -1.43434   3.70071  -1.17473
N    -1.37727   2.30346  -0.79755
C    -0.42976   1.84029   0.02377
O     0.40645   2.57981   0.55915
C    -0.31985   0.32615   0.27198
C    -0.22316   0.06462   1.80420
C    -1.50483   0.65699   2.44466
C    -2.62029  -0.34295   2.01071
C    -1.84064  -1.38811   1.17928
C    -0.51622  -1.43601   1.96069
C    -1.46406  -0.69195  -0.15526
O    -2.54672  -0.06551  -0.78908
C    -3.61583  -0.87631  -1.26421
C    -0.65893  -1.57083  -1.18193
C    -1.25201  -2.84627  -1.57103
N    -1.72124  -3.86958  -1.84274
O    -0.51570  -0.71424  -2.37828
C     0.47451   0.16664  -2.05821
O     0.82397   1.03424  -2.81242
C     0.91072  -0.20319  -0.60859
C     2.28405   0.20054  -0.14663
C     2.96675   1.29254  -0.70115
C     4.22710   1.65550  -0.21941
C     4.82082   0.93681   0.82122
C     4.14475  -0.15196   1.37980
C     2.88556  -0.51711   0.90036
N     0.66230  -1.66087  -0.64173
C     1.61798  -2.46061  -1.41236
H    -2.32452   3.86552  -1.79413
H    -1.49119   4.35102  -0.28809
H    -0.54099   3.99116  -1.75176
H    -2.04953   1.62887  -1.16154
H     0.70813   0.44207   2.23852
H    -1.71044   1.68884   2.13028
H    -1.38546   0.66990   3.53743
H    -3.42194   0.13870   1.43813
H    -3.07638  -0.83725   2.87960
H    -2.36091  -2.34397   1.03816
H     0.23960  -2.09922   1.54017
H    -0.68883  -1.70206   3.01426
H    -3.90395  -1.64545  -0.53229
H    -3.35613  -1.35796  -2.22072
H    -4.46737  -0.20302  -1.43029
H     2.51197   1.86247  -1.50819
H     4.74589   2.50859  -0.66277
H     5.80678   1.22267   1.19506
H     4.59886  -0.72293   2.19282
H     2.36977  -1.37055   1.33992
H     2.58738  -2.44931  -0.90150
H     1.26504  -3.50016  -1.44626
H     1.76050  -2.10061  -2.44733
