23
Generated by autodE on: 2022-12-30. E = -684.220637 Ha
C    -1.20740   0.70069   1.89770
N    -1.18026   0.19334   0.52553
C    -2.28548  -0.11032  -0.16507
C    -3.61553   0.02040   0.25310
N    -4.72661   0.12727   0.59569
O    -1.95406  -0.59096  -1.37229
C    -0.54194  -0.61391  -1.47567
O    -0.00720  -1.02818  -2.48947
C    -0.07043  -0.08570  -0.23285
C     1.32653   0.10330   0.14428
C     2.28893  -0.79754  -0.36104
C     3.63800  -0.64723  -0.04435
C     4.05834   0.40147   0.78067
C     3.11541   1.30606   1.27793
C     1.76361   1.16648   0.96122
H    -1.06716   1.78859   1.89772
H    -2.17882   0.45545   2.34167
H    -0.40718   0.21899   2.47035
H     1.96844  -1.62079  -0.99984
H     4.36605  -1.35913  -0.44024
H     5.11569   0.51625   1.02980
H     3.43424   2.13753   1.91073
H     1.05469   1.90590   1.33140
