51
Generated by autodE on: 2022-12-30. E = -1279.763454 Ha. Imaginary frequency = -368.2 cm-1
C    -1.26349   3.78646  -1.21892
N    -1.40623   2.42210  -0.76031
C    -0.52749   1.87174   0.10215
O     0.35133   2.55651   0.66312
C    -0.62573   0.41988   0.37303
C    -0.29043  -0.04072   1.78329
C    -1.52732   0.40679   2.63129
C    -2.66190  -0.52873   2.11359
C    -1.92698  -1.43366   1.08125
C    -0.54578  -1.55556   1.73783
C    -1.61789  -0.51132  -0.10484
O    -2.65634   0.00969  -0.83962
C    -3.63386  -0.85509  -1.40960
C    -0.51829  -1.51929  -1.51395
C    -1.15956  -2.73230  -1.91929
N    -1.72312  -3.71923  -2.16457
O    -0.55019  -0.46588  -2.43828
C     0.49109   0.38520  -2.11149
O     0.64058   1.44207  -2.68676
C     1.23853  -0.28508  -1.04260
C     2.46014   0.19389  -0.40994
C     3.11462   1.34220  -0.90263
C     4.25342   1.83266  -0.26547
C     4.75754   1.19599   0.87280
C     4.10866   0.06377   1.37671
C     2.96898  -0.43366   0.74759
N     0.79186  -1.58243  -1.04953
C     1.52821  -2.80080  -0.73628
H    -1.35829   4.50405  -0.38814
H    -0.28208   3.94912  -1.69348
H    -2.04974   3.99831  -1.95440
H    -2.08175   1.80053  -1.19692
H     0.67354   0.30634   2.17149
H    -1.75446   1.47404   2.50078
H    -1.32106   0.23518   3.69864
H    -3.49224   0.02205   1.65047
H    -3.07541  -1.14772   2.92261
H    -2.44284  -2.36705   0.82679
H     0.17965  -2.12509   1.16095
H    -0.60646  -1.99419   2.74442
H    -3.84790  -1.71773  -0.76319
H    -3.30899  -1.20777  -2.40078
H    -4.54833  -0.25891  -1.53015
H     2.72487   1.84307  -1.78667
H     4.75096   2.72038  -0.66233
H     5.64981   1.58363   1.36957
H     4.48743  -0.43214   2.27307
H     2.46108  -1.29503   1.17705
H     2.58448  -2.64338  -0.98483
H     1.44917  -3.09855   0.31798
H     1.13859  -3.61423  -1.36151
