16
Generated by autodE on: 2022-05-30. E = -546.496926 Ha
C     3.26082   1.32239   0.34565
N     1.87376   0.90200   0.29848
C     1.50314  -0.19509  -0.38404
O     2.29058  -0.92018  -1.00873
C     0.07034  -0.54026  -0.37524
C    -0.40097  -1.68228  -1.05189
N    -0.83342  -2.61797  -1.59944
O    -0.76438   0.23807   0.28395
C    -2.04928   0.14723   0.43847
C    -2.66912   1.14645   1.20737
N    -3.21858   1.95896   1.84092
H     3.33616   2.21764   0.97389
H     3.90074   0.53377   0.77164
H     3.64121   1.56082  -0.66041
H     1.17034   1.44945   0.78381
H    -2.60809  -0.67531  -0.01626
