19
Generated by autodE on: 2022-05-30. E = -995.131159 Ha
C     3.51181  -1.20140  -0.94603
O     2.12340  -1.22641  -0.59269
C     1.60014  -0.07947  -0.12369
O     2.24650   0.94392   0.01374
C     0.18047  -0.23733   0.18189
C    -0.74725   0.69943   0.45680
Cl   -0.61695   2.39557   0.58079
C    -2.10003  -0.04838   0.52379
C    -2.42253  -0.49225  -0.92162
C    -1.51723  -1.43567  -1.19498
C    -0.65159  -1.54232   0.08040
O    -1.64585  -1.28365   1.09204
H     4.12836  -0.94627  -0.07167
H     3.75316  -2.21105  -1.29804
H     3.69371  -0.46726  -1.74466
H    -2.89146   0.43028   1.10900
H    -3.19555  -0.05416  -1.55121
H    -1.34374  -1.99225  -2.11506
H    -0.10982  -2.47587   0.25686
