35
Generated by autodE on: 2022-05-30. E = -1541.626605 Ha. Imaginary frequency = -271.7 cm-1
C     5.20100  -0.51734  -0.12062
N     3.80921  -0.91806  -0.22021
C     2.89781  -0.12212  -0.80587
O     3.16599   0.98042  -1.29095
C     1.50765  -0.65101  -0.87697
C     1.31170  -2.04870  -1.02258
N     1.23732  -3.20802  -1.11876
O     0.50167   0.08926  -1.32230
C     0.20006   1.35523  -1.17568
C     1.06130   2.48138  -1.15698
N     1.54129   3.54443  -1.11668
C     0.31132   1.21490   1.35322
C    -1.14895   1.05931   1.83787
O    -0.94530   0.14895   2.94845
C    -0.27851  -0.86127   2.16571
C    -1.35605  -1.07702   1.09083
Cl   -1.68879  -2.58669   0.37270
C    -1.90754   0.13230   0.86991
C    -2.92087   0.52051  -0.11086
O    -3.59551  -0.24459  -0.77456
O    -3.01010   1.85889  -0.20557
C    -3.94297   2.37622  -1.16388
C     0.87211  -0.01141   1.56328
H     5.77341  -1.34189   0.32015
H     5.31569   0.37644   0.51342
H     5.61278  -0.28688  -1.11477
H     3.51388  -1.78644   0.21620
H    -0.83240   1.56931  -1.45778
H     0.81713   2.17163   1.25937
H    -1.66722   1.97342   2.13901
H     0.00919  -1.73885   2.75185
H    -3.86829   3.46768  -1.09865
H    -3.68050   2.03651  -2.17637
H    -4.96447   2.04876  -0.92212
H     1.91986  -0.27968   1.65892
