25
Generated by autodE on: 2022-12-30. E = -871.831731 Ha
C    -1.81714   2.19409   1.96621
C    -1.57925   1.96002   0.51056
O    -1.76750   2.77691  -0.36584
C    -1.04627   0.58443   0.12876
N    -1.50266  -0.56658   0.87688
N    -0.88686  -1.58323   0.01383
C    -1.24752  -1.10418  -1.31925
O    -1.32865  -1.76061  -2.31598
O    -1.45932   0.23155  -1.24726
C     0.51363  -1.16939   0.27866
C     1.73404  -1.71311  -0.40518
O     1.77703  -2.64844  -1.17880
C     2.94153  -0.94591   0.04019
C     2.86754   0.24693   0.67296
C     1.57781   0.97372   0.90143
O     1.48388   1.94276   1.62982
C     0.48698   0.37073   0.05977
H    -0.92471   1.91163   2.54377
H    -2.64534   1.54850   2.30464
H    -2.07190   3.24753   2.13761
H    -2.52062  -0.66599   0.82123
H     0.65699  -1.36530   1.34965
H     3.90600  -1.42044  -0.15938
H     3.76791   0.74992   1.03536
H     0.78205   0.61214  -0.97323
