12
Generated by autodE on: 2022-12-30. E = -381.636097 Ha
O     0.55370   2.60500  -0.13408
C     0.29913   1.40657  -0.07208
C     1.38090   0.39319  -0.02468
C     1.10144  -0.92019   0.04210
C    -0.29913  -1.40656   0.07228
O    -0.55370  -2.60500   0.13397
C    -1.38090  -0.39319   0.02466
C    -1.10144   0.92019  -0.04212
H     2.40434   0.77467  -0.04754
H     1.88109  -1.68479   0.07800
H    -2.40434  -0.77467   0.04739
H    -1.88109   1.68478  -0.07814
