25
Generated by autodE on: 2022-12-30. E = -871.753214 Ha. Imaginary frequency = -172.7 cm-1
C    -1.77854   2.37004   1.78657
C    -1.63271   2.02915   0.33734
O    -1.55726   2.83776  -0.56833
C    -1.52155   0.58083  -0.00230
N    -1.86133  -0.47324   0.74506
N    -1.70246  -1.61983   0.08753
C    -1.51622  -1.25597  -1.22604
O    -1.43078  -1.92809  -2.22495
O    -1.49870   0.15990  -1.27780
C     0.83565  -1.08503   0.18486
C     2.02410  -1.51906  -0.62099
O     2.12820  -2.22726  -1.59501
C     3.20422  -0.81767   0.04106
C     3.05472   0.25630   0.85259
C     1.68328   0.78866   1.24222
O     1.47421   1.39565   2.26782
C     0.76552   0.30555   0.14882
H    -0.85307   2.07928   2.31022
H    -2.61396   1.81343   2.24032
H    -1.94251   3.44938   1.89223
H    -1.95429  -0.47159   1.76299
H     0.79977  -1.56030   1.17355
H     4.19505  -1.22665  -0.17992
H     3.92076   0.76337   1.28834
H     1.01701   0.76716  -0.81520
