55
Generated by autodE on: 2022-06-23. E = -1116.619265 Ha
C     5.20801  -1.83519   0.35930
C     3.89697  -1.75047   0.66376
C     3.30629  -2.49176   1.83424
C     3.01130  -0.90944  -0.14878
C     1.69220  -0.74576   0.05180
C     0.83109   0.16011  -0.76980
C     0.01039   1.14344   0.12840
C    -0.28570   2.46387  -0.62699
C    -1.56550   3.17170  -0.28706
O     0.52181   2.91984  -1.41726
C     0.69279   1.54643   1.42487
C     0.05852   1.40250   2.66595
C     0.71746   1.77178   3.84394
C     2.00917   2.30062   3.79258
C     2.63996   2.46448   2.55383
C     1.98622   2.09117   1.37954
N    -1.24610   0.44766   0.34454
N    -1.54410  -0.04159  -0.94931
C    -2.84126  -0.50885  -1.13694
C    -3.25015  -1.15678  -2.32605
C    -4.57045  -1.57442  -2.49441
C    -5.53186  -1.36523  -1.50051
C    -5.13776  -0.72522  -0.32198
C    -3.81968  -0.30843  -0.13317
C    -0.29767  -0.57076  -1.60279
C    -0.22266  -2.09725  -1.48785
C    -0.17892  -0.12771  -3.06525
H     5.89327  -2.44961   0.95008
H     5.62775  -1.28937  -0.49134
H     4.07019  -3.08199   2.35974
H     2.85076  -1.79165   2.55435
H     2.50335  -3.17371   1.50839
H     3.48823  -0.36678  -0.97353
H     1.19932  -1.27263   0.87424
H     1.46975   0.73165  -1.45217
H    -2.41662   2.59834  -0.68591
H    -1.70005   3.22610   0.80320
H    -1.55903   4.17767  -0.72630
H    -0.95393   1.00134   2.72095
H     0.21334   1.64624   4.80506
H     2.52283   2.58819   4.71294
H     3.64824   2.88189   2.50236
H     2.48341   2.22048   0.41709
H    -1.08475  -0.34643   0.97943
H    -2.54498  -1.33238  -3.13287
H    -4.84698  -2.07202  -3.42771
H    -6.56324  -1.69522  -1.64139
H    -5.86508  -0.54875   0.47513
H    -3.53482   0.18477   0.79333
H    -0.37273  -2.42801  -0.44999
H    -0.98971  -2.57518  -2.11246
H     0.76004  -2.45867  -1.82243
H    -0.91022  -0.61700  -3.72106
H     0.82203  -0.39329  -3.43750
H    -0.30067   0.96098  -3.15628
