23
Generated by autodE on: 2022-06-23. E = -351.521380 Ha
C    -3.66561   0.15356  -0.91674
C    -2.56377  -0.24137  -0.24163
C    -2.64862  -1.25090   0.87456
C    -1.25646   0.31054  -0.59158
C    -0.07889  -0.00789   0.00236
C     1.19219   0.56866  -0.38580
C     2.41012   0.29840   0.14833
C     2.65106  -0.67666   1.26571
C     3.64445   0.98284  -0.36729
H    -4.65577  -0.24365  -0.67647
H    -3.60027   0.88611  -1.72719
H    -3.68467  -1.58068   1.03548
H    -2.03294  -2.13890   0.65446
H    -2.26768  -0.83109   1.82037
H    -1.24879   1.04260  -1.40816
H    -0.07896  -0.73799   0.81622
H     1.14983   1.30054  -1.20160
H     3.13828  -0.16928   2.11703
H     1.73861  -1.16278   1.63415
H     3.35200  -1.46505   0.93867
H     4.15219   1.53681   0.44272
H     3.42050   1.68609  -1.18280
H     4.37740   0.24263  -0.73573
