55
Generated by autodE on: 2022-06-23. E = -1116.569691 Ha. Imaginary frequency = -338.6 cm-1
C     4.56859  -1.24340   1.84180
C     3.33630  -1.53511   1.36620
C     2.47263  -2.57901   2.02642
C     2.80047  -0.79720   0.23015
C     1.54630  -0.93563  -0.27737
C     0.98842  -0.08810  -1.29850
C     0.10807   1.57085  -0.02447
C     0.15571   2.67984  -1.03795
C    -1.10447   3.47288  -1.30868
O     1.20065   3.00278  -1.59377
C     0.99500   1.62868   1.14838
C     0.68810   0.92663   2.33538
C     1.56754   0.91772   3.41650
C     2.78688   1.59972   3.34608
C     3.10492   2.30031   2.18014
C     2.22639   2.31391   1.09641
N    -1.10000   0.94084   0.07848
N    -1.64309   0.61456  -1.11285
C    -2.89856  -0.00020  -1.03806
C    -3.59181  -0.22527  -2.24754
C    -4.83316  -0.85705  -2.25657
C    -5.43306  -1.26477  -1.05874
C    -4.77092  -1.02093   0.14775
C    -3.52142  -0.39684   0.16636
C    -0.18221  -0.44979  -2.04765
C    -0.72144  -1.85542  -1.90777
C    -0.25621   0.12962  -3.44004
H     4.98432  -1.76294   2.70952
H     5.18646  -0.47147   1.37330
H     1.54673  -2.12896   2.42112
H     2.16545  -3.35712   1.30839
H     3.00100  -3.06511   2.85862
H     3.46344  -0.04649  -0.21292
H     0.88518  -1.68450   0.16644
H     1.67211   0.62517  -1.76360
H    -1.42565   3.30602  -2.34779
H    -1.93165   3.22484  -0.63511
H    -0.84369   4.53865  -1.21108
H    -0.24562   0.37103   2.43717
H     1.29950   0.36327   4.31873
H     3.47936   1.58314   4.19042
H     4.05433   2.83561   2.10435
H     2.50299   2.84748   0.18968
H    -1.16680   0.24196   0.82201
H    -3.14518   0.11353  -3.18174
H    -5.34419  -1.02024  -3.20868
H    -6.41034  -1.75228  -1.06575
H    -5.23226  -1.31503   1.09396
H    -3.04977  -0.20855   1.13131
H    -0.92713  -2.12282  -0.86111
H     0.01317  -2.58000  -2.29957
H    -1.65124  -1.98488  -2.47747
H     0.05314   1.18424  -3.45573
H    -1.26341   0.05033  -3.86990
H     0.42622  -0.42924  -4.10505
