38
Generated by autodE on: 2022-10-07. E = -1179.857578 Ha
C     3.34086   3.38558  -0.13590
O     2.73767   2.25000  -0.77529
C     1.79817   1.60566  -0.09052
O     1.35286   1.97581   0.97455
C     1.22925   0.38229  -0.83774
C     2.01308   0.09236  -2.05323
N     2.57415  -0.17917  -3.03246
C     1.23572  -0.88078   0.07855
C     2.37883  -0.91927   1.10087
O     2.19966  -1.62013   2.12580
O     3.41912  -0.27020   0.80398
C    -0.18643  -0.96849   0.61546
C    -0.62064  -2.38568   1.03712
O    -1.27508  -2.48742   2.10595
O    -0.32861  -3.32821   0.25198
C    -1.00471  -0.45825  -0.58535
C    -2.40157  -0.03198  -0.19855
C    -3.46672  -0.93191  -0.33715
C    -4.75307  -0.58445   0.08692
C    -4.98902   0.67308   0.65082
C    -3.92958   1.57665   0.79386
C    -2.64417   1.22460   0.37541
N    -0.18692   0.63519  -1.11166
C    -0.55084   1.16285  -2.40953
H     2.58060   4.14357   0.09971
H     4.06922   3.78430  -0.85102
H     3.84592   3.06732   0.78751
H     1.37226  -1.75771  -0.57431
H    -0.32611  -0.28262   1.46181
H    -1.08188  -1.28570  -1.31952
H    -3.28102  -1.91420  -0.77987
H    -5.57410  -1.29660  -0.02743
H    -5.99465   0.94922   0.97724
H    -4.10635   2.56046   1.23606
H    -1.81224   1.92136   0.49472
H    -1.59841   1.49753  -2.38517
H    -0.44738   0.42193  -3.22875
H     0.07346   2.03594  -2.65239
