28
Generated by autodE on: 2022-10-13. E = -724.755078 Ha
C     4.43332   0.99250  -1.04358
O     3.60879  -0.04177  -0.50408
C     2.27671   0.21819  -0.43936
O     1.80719   1.28828  -0.82450
C     1.54425  -0.89778   0.09738
C     2.20527  -2.08821   0.43915
N     2.76344  -3.07814   0.72534
N     0.13061  -0.85041   0.18244
C    -0.58898  -2.10646  -0.08229
C    -0.48320   0.28067   0.44134
C    -1.89111   0.60484   0.31370
C    -2.80253  -0.02048  -0.56698
C    -4.12747   0.40635  -0.62234
C    -4.57232   1.45295   0.19355
C    -3.67575   2.09466   1.05493
C    -2.34590   1.68614   1.10345
H     4.17479   1.19768  -2.09347
H     5.46368   0.62141  -0.98093
H     4.33382   1.92074  -0.46098
H    -0.69001  -2.26174  -1.16504
H    -1.57133  -2.08352   0.39767
H    -0.00589  -2.93199   0.34137
H     0.16095   1.08139   0.80160
H    -2.47542  -0.81404  -1.23626
H    -4.81888  -0.07821  -1.31498
H    -5.61434   1.77711   0.14676
H    -4.01332   2.92193   1.68277
H    -1.63956   2.19545   1.76293
