10
Generated by autodE on: 2022-10-07. E = -455.051683 Ha
O    -2.14652  -0.28602  -1.36230
C    -1.96930  -0.02145  -0.14140
O    -2.87913   0.14718   0.71831
C    -0.54853   0.10756   0.36942
C     0.54853  -0.10764  -0.36940
C     1.96930   0.02145   0.14140
O     2.14653   0.28592   1.36232
O     2.87912  -0.14701  -0.71834
H    -0.43618   0.38533   1.42310
H     0.43616  -0.38540  -1.42308
