38
Generated by autodE on: 2022-10-07. E = -1179.797635 Ha. Imaginary frequency = -458.0 cm-1
C     4.72045   1.49453  -0.94995
O     3.51141   0.79936  -1.27213
C     2.36186   1.37764  -0.86442
O     2.33415   2.48477  -0.35126
C     1.22920   0.47613  -1.06902
C     1.47528  -0.70404  -1.82479
N     1.65936  -1.67731  -2.44220
C     1.21884  -0.75631   1.03691
C     1.98732   0.29694   1.79438
O     1.33960   1.23424   2.34003
O     3.24445   0.15976   1.82366
C    -0.16838  -0.89409   1.15133
C    -0.82068  -2.27060   1.06239
O    -1.84198  -2.44512   1.77772
O    -0.31636  -3.10818   0.26581
C    -0.94758  -0.17369  -0.57779
C    -2.40436  -0.01161  -0.38175
C    -3.26191  -0.84555  -1.12118
C    -4.64468  -0.79217  -0.93728
C    -5.19137   0.08509   0.00392
C    -4.34628   0.90093   0.76428
C    -2.96438   0.85036   0.57955
N    -0.09976   0.85499  -0.89349
C    -0.44684   2.24681  -0.60088
H     4.75285   2.47562  -1.44610
H     4.80247   1.62717   0.13779
H     5.53780   0.86199  -1.31630
H     1.80632  -1.58689   0.64075
H    -0.65152  -0.19810   1.84235
H    -0.69473  -1.09734  -1.10104
H    -2.83283  -1.54088  -1.84638
H    -5.29614  -1.44200  -1.52615
H    -6.27283   0.12560   0.15374
H    -4.76599   1.57425   1.51522
H    -2.31677   1.46628   1.20390
H    -0.25767   2.49179   0.45253
H     0.14810   2.90854  -1.23553
H    -1.50674   2.39599  -0.83208
