53
Generated by autodE on: 2022-06-05. E = -1736.784469 Ha
C    -7.71554  -0.52797   3.62972
N    -6.97003   0.54177   2.99195
C    -5.67695   0.40059   2.69315
O    -5.01540  -0.60073   2.97198
C    -4.92324   1.60821   2.05209
Cl   -6.12550   2.83341   1.34599
C    -4.26330   2.34328   3.23186
C    -3.52550   3.64736   2.93642
C    -2.49356   3.59810   1.81731
C    -1.32422   2.64249   2.00870
C    -1.62141   1.08041   1.97542
C    -0.32543   0.48563   1.56805
N     0.71596   0.06930   1.27691
C    -1.82866   0.48838   3.31514
N    -1.89601  -0.00476   4.36185
C    -2.74138   0.70389   0.99107
C    -4.04825   1.02795   0.94848
C    -4.65802   0.54512  -0.38829
C    -4.73216   1.71393  -1.39531
C    -6.01934  -0.14451  -0.26510
N    -3.65352  -0.46113  -0.81604
C    -3.64785  -0.90495  -2.19979
C    -2.37008  -0.13366  -0.23187
C    -1.48404   0.65292  -1.13728
N    -0.85815   1.29944  -1.86983
C    -1.70482  -1.46875   0.19201
O    -1.98524  -2.02222   1.23049
O    -0.87455  -1.93082  -0.72603
C    -0.21448  -3.17958  -0.43998
H    -7.19978  -0.86953   4.53903
H    -8.71009  -0.15356   3.90023
H    -7.83029  -1.39172   2.95460
H    -7.45915   1.37250   2.67543
H    -3.61722   1.62588   3.74501
H    -5.06948   2.55342   3.94969
H    -4.26231   4.42735   2.69322
H    -3.03617   3.95969   3.87358
H    -2.04349   4.59930   1.72096
H    -2.98035   3.40348   0.84939
H    -0.79021   2.84628   2.94815
H    -0.61674   2.81121   1.18575
H    -3.74860   2.18897  -1.52375
H    -5.44396   2.47897  -1.07054
H    -5.06691   1.33601  -2.37215
H    -6.79722   0.55763   0.05682
H    -6.31796  -0.53222  -1.24981
H    -5.97119  -0.98775   0.43614
H    -2.99459  -1.78330  -2.29942
H    -4.66168  -1.21197  -2.48777
H    -3.29864  -0.13819  -2.91585
H    -0.95781  -3.97548  -0.29615
H     0.40082  -3.07143   0.46404
H     0.41420  -3.39130  -1.31141
