24
Generated by autodE on: 2022-07-27. E = -572.271930 Ha
C     3.33729  -1.45955   0.87771
O     2.35412  -0.82351   0.06228
C     1.08996  -0.76660   0.57035
O     0.80747  -1.25927   1.66445
C     0.18343  -0.09164  -0.30226
C     0.57837   0.46887  -1.52234
N     0.88521   0.95156  -2.54678
N    -1.19566  -0.01225   0.07145
C    -1.89654  -1.28148   0.34614
C    -1.85772   1.11997   0.07037
C    -1.15115   2.41323  -0.10989
C    -3.33737   1.11531   0.24847
H     3.07861  -2.51330   1.06347
H     3.44797  -0.94365   1.84393
H     4.27951  -1.40317   0.31834
H    -1.15484  -2.07611   0.44669
H    -2.47720  -1.20428   1.27340
H    -2.57157  -1.51428  -0.48970
H    -0.12754   2.36822   0.28881
H    -1.72364   3.21654   0.37276
H    -1.07342   2.65857  -1.18450
H    -3.75265   2.10413   0.02158
H    -3.82065   0.35910  -0.38812
H    -3.58710   0.86616   1.29484
