53
Generated by autodE on: 2022-06-05. E = -1736.695737 Ha. Imaginary frequency = -308.8 cm-1
C    -8.18012  -0.16378   2.91415
N    -7.18331   0.83701   2.58199
C    -5.89436   0.51603   2.44379
O    -5.44524  -0.61382   2.65301
C    -4.88428   1.64099   2.10778
Cl   -5.73382   3.07680   1.29156
C    -4.30886   2.14031   3.45361
C    -3.48896   3.43290   3.44509
C    -2.28340   3.51122   2.50208
C    -1.28755   2.35533   2.66735
C    -1.24538   1.36902   1.43949
C    -0.62143   2.07228   0.29582
N    -0.15621   2.68030  -0.57355
C    -0.36280   0.25933   1.85181
N     0.34613  -0.54713   2.28546
C    -2.61427   0.93025   1.03908
C    -3.84079   1.11797   1.19260
C    -4.70822   0.38338  -0.77384
C    -4.30436   1.62505  -1.52661
C    -6.19372   0.19006  -0.67265
N    -3.92198  -0.71989  -0.78172
C    -4.52268  -2.01757  -0.42195
C    -2.53100  -0.58322  -0.80756
C    -1.94152   0.06364  -1.93568
N    -1.45425   0.54865  -2.87725
C    -1.69117  -1.61705  -0.16551
O    -2.03017  -2.33994   0.75434
O    -0.45951  -1.64366  -0.70204
C     0.45095  -2.62662  -0.19241
H    -7.87448  -0.73317   3.80374
H    -9.13240   0.33968   3.12009
H    -8.32509  -0.87445   2.08362
H    -7.48425   1.77234   2.32847
H    -3.72051   1.29729   3.84718
H    -5.15594   2.27946   4.14255
H    -4.15787   4.27930   3.22833
H    -3.13633   3.57758   4.47999
H    -1.76048   4.45778   2.70403
H    -2.62435   3.58047   1.45776
H    -1.53171   1.73969   3.54435
H    -0.26022   2.72007   2.80749
H    -3.27571   1.94715  -1.34874
H    -4.97322   2.44779  -1.25410
H    -4.42660   1.42746  -2.60617
H    -6.67287   1.15000  -0.45365
H    -6.57732  -0.15327  -1.65047
H    -6.49440  -0.54158   0.08342
H    -3.83557  -2.82258  -0.68615
H    -4.74909  -2.06143   0.65133
H    -5.44183  -2.15133  -1.00192
H     0.05496  -3.63747  -0.36799
H     0.62315  -2.47703   0.88136
H     1.38493  -2.48424  -0.74847
