63
Generated by autodE on: 2022-12-30. E = -1436.441190 Ha
C    -7.30986  -6.51227   4.87787
N    -7.32245  -5.16251   5.40637
C    -8.38721  -4.66474   6.05014
O    -9.35901  -5.39148   6.31336
C    -8.26761  -3.17751   6.47327
C    -9.54749  -2.55471   7.12627
O    -9.57302  -1.33346   7.33292
N   -10.53419  -3.36689   7.50731
C   -11.74402  -2.85298   8.11608
C    -7.23787  -3.12441   7.66149
C    -5.76457  -3.52569   7.48125
C    -4.92562  -2.86236   6.38353
C    -4.87030  -1.33638   6.38886
C    -6.22436  -0.62437   6.22570
O    -6.00049   0.72850   5.81809
C    -6.16872   1.69978   6.83172
C    -7.13307  -1.24604   5.19613
C    -7.95576  -2.30241   5.25855
C    -8.77321  -2.40702   3.95906
C    -8.56426  -3.65949   3.10242
C   -10.27192  -2.19464   4.18933
O    -8.27834  -1.28395   3.17406
C    -7.21082  -0.60839   3.82322
C    -7.65346   0.88123   3.90259
C    -8.87556   1.16210   4.73205
O    -7.14159   1.76597   3.23258
C    -5.90366  -0.93943   3.04285
O    -5.55012  -2.12358   2.95795
N    -5.21582   0.06157   2.49270
C    -3.99116  -0.17346   1.75462
H    -6.31296  -6.72157   4.47090
H    -7.53333  -7.24130   5.67019
H    -8.05635  -6.63647   4.07524
H    -6.59196  -4.52892   5.10246
H   -10.44215  -4.34574   7.21740
H   -11.51378  -2.26611   9.01853
H   -12.38736  -3.69636   8.39639
H   -12.29869  -2.19958   7.42197
H    -7.29916  -2.11805   8.08802
H    -7.65899  -3.78837   8.43302
H    -5.69562  -4.61601   7.35299
H    -5.28847  -3.31220   8.45377
H    -5.25168  -3.18781   5.38355
H    -3.89490  -3.23900   6.48593
H    -4.23059  -1.00334   5.55618
H    -4.40558  -0.96967   7.31901
H    -6.75495  -0.60389   7.18456
H    -7.18185   1.65864   7.26938
H    -5.42709   1.57601   7.64093
H    -6.02223   2.68473   6.36533
H    -9.07227  -4.53449   3.52777
H    -9.00890  -3.46659   2.11423
H    -7.49895  -3.88095   2.96754
H   -10.77500  -2.10293   3.21486
H   -10.70609  -3.05671   4.71409
H   -10.46591  -1.28852   4.77523
H    -9.76054   0.95392   4.10893
H    -8.94397   0.52843   5.62396
H    -8.88682   2.22510   5.00577
H    -5.62761   0.99356   2.56534
H    -4.17415  -0.77471   0.84914
H    -3.25747  -0.71305   2.37351
H    -3.56365   0.79191   1.45735
