25
Generated by autodE on: 2023-01-01. E = -593.365318 Ha
C     3.28231  -0.73179  -1.15575
N     2.03664  -0.01112  -1.01461
C     1.04443  -0.47493  -0.21215
O     1.08011  -1.61859   0.29493
C    -0.05139   0.45082   0.03345
O    -1.07812  -0.02387   0.87551
C    -1.74561  -1.09536   0.66699
C    -1.66362  -1.84688  -0.59392
C    -2.65264  -1.49899   1.75810
C    -0.05754   1.85133  -0.17285
C    -1.20737   2.64997   0.40920
O     0.83165   2.44215  -0.84171
H     3.09890  -1.77470  -1.45452
H     3.87209  -0.75271  -0.22126
H     3.88834  -0.25033  -1.93452
H     1.97755   0.98666  -1.23402
H    -0.82189  -2.55744  -0.53417
H    -1.43752  -1.15863  -1.42510
H    -2.59515  -2.40222  -0.76217
H    -3.67807  -1.59117   1.36385
H    -2.36024  -2.50728   2.10070
H    -2.61490  -0.79227   2.59569
H    -1.34675   2.43684   1.48044
H    -1.00286   3.71968   0.26871
H    -2.15282   2.39607  -0.09757
