23
Generated by autodE on: 2022-06-19. E = -351.521381 Ha
C     3.63942   0.54385   0.86977
C     2.57276  -0.02006   0.26140
C     2.73862  -1.15071  -0.72163
C     1.22553   0.46682   0.55144
C     0.07761  -0.01009   0.00766
C    -1.23491   0.51146   0.33018
C    -2.42470   0.09855  -0.17528
C    -2.58138  -1.00007  -1.18801
C    -3.71052   0.74174   0.26151
H     3.51563   1.36461   1.58302
H     4.65828   0.19990   0.67104
H     2.32907  -0.88160  -1.70947
H     2.19258  -2.04936  -0.38960
H     3.79756  -1.41686  -0.84770
H     1.15898   1.28967   1.27344
H     0.13533  -0.83045  -0.71287
H    -1.25303   1.32747   1.06280
H    -3.09175  -0.61744  -2.08955
H    -1.63129  -1.45261  -1.49984
H    -3.22869  -1.80010  -0.78724
H    -4.39511  -0.00819   0.69712
H    -4.24450   1.17565  -0.60305
H    -3.54705   1.53659   1.00399
