22
Generated by autodE on: 2022-06-19. E = -513.088121 Ha
C     3.81195  -0.11789   0.13651
N     2.46648   0.40991   0.22058
C     1.38183  -0.37285   0.01049
O     1.49554  -1.60182  -0.21000
C     0.06197   0.24496   0.05340
C    -0.12536   1.60816   0.29535
N    -0.17961   2.76238   0.50595
N    -0.95955  -0.67466  -0.17296
C    -2.25824  -0.60503  -0.22825
C    -3.02556  -1.85178  -0.50548
C    -2.97780   0.68288  -0.02226
H     4.06777  -0.44525  -0.88596
H     4.51871   0.66602   0.43618
H     3.94354  -0.98111   0.80719
H     2.33916   1.40873   0.33993
H    -0.52525  -1.59801  -0.32251
H    -3.63389  -1.72213  -1.41691
H    -2.36739  -2.72300  -0.63227
H    -3.73188  -2.04833   0.31904
H    -2.66694   1.43121  -0.76945
H    -4.06119   0.53172  -0.10566
H    -2.75495   1.10264   0.97234
