45
Generated by autodE on: 2022-06-19. E = -864.580246 Ha. Imaginary frequency = -403.1 cm-1
C    -0.10263  -2.09486   1.82803
C     0.02883  -0.75865   2.02194
C    -0.51458  -0.09513   3.26290
C     0.65283   0.12452   1.04913
C     1.44697  -0.33517  -0.03899
C     2.46854   0.58994  -0.55921
C     3.62226   0.27471  -1.18466
C     4.55607   1.34985  -1.67037
C     4.06752  -1.13133  -1.48132
C     0.12218  -0.73506  -1.60434
C     0.50725   0.26590  -2.67013
C     0.36711  -2.16189  -2.03218
N    -1.08840  -0.56486  -0.96020
C    -1.39101   0.51406  -0.15953
C    -1.00017   1.83442  -0.51231
N    -0.67529   2.93283  -0.73697
C    -2.53875   0.47877   0.78123
O    -3.03596   1.53645   1.20104
N    -3.00797  -0.73599   1.16070
C    -4.02017  -0.82558   2.19802
H    -0.60523  -2.71817   2.57242
H     0.30730  -2.60203   0.95266
H     0.31141   0.32189   3.86388
H    -1.07607  -0.80044   3.89147
H    -1.17173   0.75087   3.00842
H     0.75299   1.17080   1.34739
H     1.74504  -1.38422   0.01611
H     2.24210   1.65359  -0.42061
H     5.55683   1.24357  -1.21430
H     4.17829   2.35873  -1.44654
H     4.70809   1.27240  -2.76245
H     5.10903  -1.28665  -1.14982
H     3.43907  -1.89679  -1.00749
H     4.06057  -1.31542  -2.57079
H     0.48784   1.30833  -2.34240
H    -0.19614   0.15385  -3.51375
H     1.51552   0.04434  -3.03879
H    -0.20561  -2.39453  -2.94668
H     0.08026  -2.87865  -1.24887
H     1.43099  -2.30396  -2.26356
H    -1.50381  -1.43785  -0.64353
H    -2.36447  -1.52314   1.10419
H    -4.31318  -1.87649   2.31573
H    -3.65530  -0.44684   3.16769
H    -4.90716  -0.24115   1.91679
