37
Generated by autodE on: 2022-05-31. E = -1223.624682 Ha
C     5.42688  -0.06865  -0.70902
O     4.07244   0.14200  -0.28772
C     3.55722  -0.76224   0.56054
O     4.17735  -1.72496   0.97692
C     2.17378  -0.43959   0.90056
C     1.26217  -1.21851   1.51221
F     1.39310  -2.43936   1.98315
C    -0.07768  -0.50325   1.43227
O     0.37133   0.85652   1.50482
C     1.35881   0.77820   0.45660
C     0.50148   0.32435  -0.74973
C    -0.50288  -0.64951  -0.05522
C    -1.84210  -0.03509  -0.49025
C    -3.08022  -0.89807  -0.32237
O    -3.07692  -1.96693   0.24580
O    -4.14103  -0.32471  -0.87067
C    -5.38996  -1.03471  -0.77493
N    -1.54423   0.41197  -1.83071
C    -0.46532   1.35070  -1.40881
C     0.11339   2.24523  -2.47202
C    -1.17786   2.09507  -0.26682
O    -1.06308   3.23071   0.11530
O    -2.06055   1.20945   0.27195
H     5.52119  -1.02829  -1.23785
H     5.66570   0.76103  -1.38421
H     6.10486  -0.06205   0.15677
H    -0.82631  -0.74285   2.19395
H     1.90031   1.72321   0.35187
H     1.10661  -0.14395  -1.53425
H    -0.44619  -1.68693  -0.40084
H    -6.13139  -0.40696  -1.28097
H    -5.30754  -2.01119  -1.27235
H    -5.66203  -1.17758   0.28025
H    -2.34516   0.92418  -2.21289
H     0.59019   1.64429  -3.25934
H    -0.66781   2.87437  -2.92429
H     0.87147   2.90573  -2.02630
