19
Generated by autodE on: 2022-05-31. E = -634.779117 Ha
C     3.68177   0.28187   0.26128
O     2.28947   0.11364   0.55496
C     1.47103  -0.07671  -0.49479
O     1.86247  -0.11055  -1.65022
C     0.08652  -0.22956  -0.07185
C    -1.02773  -0.26207  -0.82256
F    -1.16778  -0.19157  -2.12750
C    -2.22496  -0.28556   0.14018
C    -2.26712   1.10480   0.81804
C    -1.18146   1.13462   1.59575
C    -0.48423  -0.22666   1.36936
O    -1.63895  -1.07666   1.18579
H     4.18011   0.42405   1.22729
H     4.08102  -0.61000  -0.24370
H     3.83869   1.16201  -0.37942
H    -3.15862  -0.70269  -0.25130
H    -3.01676   1.87051   0.62427
H    -0.79550   1.93669   2.22370
H     0.18381  -0.59630   2.15264
