18
Generated by autodE on: 2022-05-31. E = -588.777274 Ha
C     3.70294   0.94402  -0.02149
O     2.27124   0.91852  -0.11588
C     1.67314  -0.24180   0.18756
O     2.24903  -1.25860   0.53186
C     0.23229  -0.13461   0.05330
N    -0.49013   0.92222  -0.31010
C    -1.81940   0.63389  -0.31433
C    -2.90220   1.58076  -0.67490
C    -1.93505  -0.72614   0.08249
O    -2.86927  -1.49744   0.25042
O    -0.59327  -1.15516   0.30120
H     4.14599   0.20813  -0.70800
H     4.02381   0.72555   1.00730
H     4.00478   1.95828  -0.30593
H    -0.07774   1.82591  -0.54826
H    -3.87077   1.08266  -0.53151
H    -2.83274   1.90208  -1.72770
H    -2.88075   2.48517  -0.04498
