37
Generated by autodE on: 2022-05-31. E = -1223.551445 Ha. Imaginary frequency = -328.6 cm-1
C     5.53774  -0.37487  -0.51804
O     4.16575  -0.15569  -0.16794
C     3.55355  -1.13687   0.51850
O     4.10939  -2.17368   0.84306
C     2.16731  -0.79790   0.80720
C     1.19337  -1.58079   1.30713
F     1.24267  -2.83503   1.69845
C    -0.11529  -0.77603   1.24847
O     0.42582   0.52510   1.50047
C     1.40131   0.49967   0.44084
C     0.50825   0.16492  -0.76656
C    -0.47870  -0.66999  -0.24857
C    -2.23136   0.65738  -0.43869
C    -3.33103  -0.21839  -0.02344
O    -3.71045  -0.32372   1.12672
O    -3.78393  -0.93622  -1.05361
C    -4.79581  -1.91411  -0.76218
N    -1.95602   1.05472  -1.71123
C    -0.91423   1.93041  -1.65171
C    -0.23908   2.53716  -2.82270
C    -0.88334   2.42416  -0.29664
O    -0.25617   3.31233   0.25149
O    -1.81950   1.64535   0.39804
H     5.63632  -1.26388  -1.15819
H     5.85798   0.52065  -1.06316
H     6.15075  -0.50874   0.38534
H    -0.90446  -1.05811   1.95373
H     1.99002   1.42108   0.40885
H     0.89775   0.14377  -1.78255
H    -0.95194  -1.49594  -0.77957
H    -5.02542  -2.40180  -1.71605
H    -4.41664  -2.64928  -0.03807
H    -5.69338  -1.42592  -0.35695
H    -2.16082   0.46495  -2.51649
H    -0.04920   1.78668  -3.60384
H    -0.85190   3.34404  -3.25975
H     0.71806   2.97247  -2.50399
