23
Generated by autodE on: 2022-06-27. E = -351.521381 Ha
C    -3.01006  -1.01220   2.05243
C    -2.27005  -0.25373   1.21402
C    -2.81422   1.02359   0.62703
C    -0.91367  -0.66796   0.86065
C    -0.07141   0.00087   0.03349
C     1.26591  -0.45783  -0.28299
C     2.16726   0.14737  -1.09715
C     1.92044   1.43581  -1.82940
C     3.52356  -0.45755  -1.32598
H    -2.61244  -1.93907   2.47727
H    -4.02748  -0.72633   2.33357
H    -3.83977   1.21553   0.97275
H    -2.18756   1.88733   0.90503
H    -2.82201   0.98300  -0.47494
H    -0.56569  -1.60394   1.31415
H    -0.41019   0.93488  -0.42288
H     1.56850  -1.39764   0.19466
H     0.92409   1.86122  -1.65368
H     2.04341   1.28631  -2.91669
H     2.67258   2.19027  -1.53819
H     3.65868  -1.39779  -0.77150
H     4.32147   0.24436  -1.02344
H     3.68635  -0.65870  -2.40017
