43
Generated by autodE on: 2022-06-27. E = -996.498487 Ha
C     3.22495   1.11448   2.89898
N     2.97784   0.84334   1.50231
C     1.90234   0.13214   1.09408
O     1.03783  -0.26466   1.91094
C     1.80983  -0.14029  -0.34540
C     2.74599   0.27386  -1.31817
C     2.46697   0.03273  -2.79133
O     3.81925   0.88490  -1.03724
N     0.65031  -0.90266  -0.69996
C     0.88431  -2.28718  -1.13634
C    -0.54745  -0.46023  -0.38107
C    -1.68898  -1.38048  -0.21649
C    -1.59735  -2.46939   0.66853
C    -2.69995  -3.30014   0.86462
C    -3.89190  -3.06063   0.17213
C    -3.98915  -1.97292  -0.70261
C    -2.89896  -1.12222  -0.88364
C    -0.80016   0.97854  -0.17026
C    -1.60407   1.38289   0.90901
C    -1.88027   2.73592   1.11054
C    -1.38081   3.69207   0.22186
C    -0.60134   3.29180  -0.87084
C    -0.30112   1.94508  -1.06284
H     3.44380   0.19722   3.47429
H     2.35642   1.59929   3.37307
H     4.08803   1.78765   2.98533
H     3.65156   1.07357   0.76542
H     3.17696  -0.71490  -3.18191
H     2.66176   0.97334  -3.32923
H     1.44553  -0.29819  -3.01652
H     1.17679  -2.90205  -0.27403
H     1.71308  -2.28431  -1.85262
H    -0.01142  -2.70194  -1.61147
H    -0.67309  -2.63683   1.22275
H    -2.63005  -4.13588   1.56417
H    -4.75114  -3.71832   0.32202
H    -4.92125  -1.78146  -1.23849
H    -2.97323  -0.26341  -1.55336
H    -1.99287   0.63435   1.60073
H    -2.49149   3.04302   1.96188
H    -1.60428   4.75047   0.37443
H    -0.22567   4.03456  -1.57788
H     0.29941   1.63891  -1.91886
