66
Generated by autodE on: 2022-06-27. E = -1347.956515 Ha. Imaginary frequency = -272.7 cm-1
C    -0.63014   4.70669  -1.84371
N    -0.83880   3.40268  -1.24464
C    -1.15667   3.28506   0.06789
O    -1.32304   4.30872   0.76458
C    -1.15054   1.95948   0.73217
C    -1.59354   2.15885   2.18960
C    -3.06565   2.47390   2.37097
O    -0.83409   2.17459   3.13683
C     1.09653   1.92685   0.87131
C     1.63559   0.74622   1.36506
C     1.77479   0.55263   2.85469
C     2.21357  -0.27624   0.52102
C     2.44071  -0.24467  -0.82613
C     3.10521  -1.31470  -1.53185
C     3.36455  -1.39213  -2.86252
C     4.04329  -2.59661  -3.45082
C     2.97543  -0.33556  -3.85691
C    -1.17974  -0.49200   0.49109
C    -1.38513  -0.89505   1.89018
C    -2.58953  -0.57741   2.54934
C    -2.83864  -1.01783   3.84978
C    -1.90308  -1.81673   4.51325
C    -0.72188  -2.18208   3.85550
C    -0.46548  -1.72745   2.56359
C    -0.89071  -1.52292  -0.49610
C    -0.26714  -1.21463  -1.73132
C     0.02864  -2.21157  -2.66089
C    -0.25348  -3.54934  -2.37824
C    -0.85435  -3.88123  -1.15458
C    -1.17396  -2.88873  -0.23434
N    -1.47147   0.78329   0.05485
C    -2.24731   0.89785  -1.21359
H    -0.45830   4.57681  -2.91983
H     0.23783   5.22904  -1.40606
H    -1.51383   5.34624  -1.70236
H    -0.48219   2.59534  -1.74009
H    -3.40724   2.15110   3.36312
H    -3.69539   2.04749   1.57944
H    -3.15111   3.56985   2.30861
H     1.04257   2.80007   1.52168
H     1.18707   2.13786  -0.19452
H     1.92603   1.51333   3.36858
H     2.62278  -0.10798   3.09306
H     0.87586   0.09492   3.29872
H     2.55800  -1.17318   1.05096
H     2.14182   0.64025  -1.39427
H     3.41416  -2.16473  -0.91049
H     4.31347  -3.33676  -2.68281
H     3.38895  -3.09189  -4.19198
H     4.96089  -2.31209  -3.99767
H     2.30140  -0.75991  -4.62317
H     3.86247   0.03286  -4.40294
H     2.47113   0.52847  -3.40463
H    -3.35766  -0.02367   2.01366
H    -3.78088  -0.75431   4.33648
H    -2.09776  -2.16611   5.52980
H     0.01155  -2.81642   4.35894
H     0.46071  -2.00812   2.06126
H    -0.00358  -0.18680  -1.96506
H     0.50231  -1.93960  -3.60595
H    -0.01131  -4.33012  -3.10293
H    -1.09024  -4.92343  -0.92613
H    -1.66913  -3.16505   0.69661
H    -2.97703   1.70638  -1.09619
H    -2.78822  -0.04064  -1.36749
H    -1.63905   1.09051  -2.10219
