56
Generated by autodE on: 2022-06-25. E = -1246.111689 Ha
C    -2.20778   2.44391  -2.34390
C    -1.14459   1.40814  -2.09905
O    -0.34846   1.12834  -2.98334
C    -0.88715   0.86605  -0.64767
C    -1.92951   1.35266   0.36805
C    -3.29012   1.03716   0.20880
C    -4.23719   1.43151   1.15606
C    -3.84659   2.14925   2.29087
C    -2.49613   2.45537   2.46922
C    -1.54926   2.05537   1.52031
N     0.47055   1.28372  -0.27464
C     0.86177   2.66076  -0.50094
C     1.48104   0.30594  -0.65151
C     2.45470  -0.01362   0.46938
C     3.65381  -0.67725   0.16650
C     4.55051  -1.03208   1.17658
C     4.26790  -0.71359   2.51007
C     3.08627  -0.03383   2.81861
C     2.18671   0.31158   1.80450
C     0.67408  -0.92594  -1.18652
N     1.24536  -2.21960  -0.92134
C     1.97410  -2.86950  -1.99008
C     0.88011  -2.90999   0.20619
C    -0.08246  -2.49719   1.06095
C    -0.84811  -1.22497   0.84276
C    -0.76078  -0.69951  -0.61721
C    -1.79108  -1.38088  -1.51636
N    -1.82708  -2.72177  -1.45253
O    -2.52799  -0.74418  -2.28218
H    -2.08300   2.84631  -3.35790
H    -3.21319   2.01611  -2.23803
H    -2.12389   3.25462  -1.60394
H    -3.61244   0.46645  -0.66063
H    -5.28781   1.17057   1.00645
H    -4.58752   2.45955   3.03153
H    -2.16964   3.00387   3.35624
H    -0.49767   2.27918   1.68952
H     1.74061   2.90083   0.11845
H     0.05452   3.34916  -0.21627
H     1.12946   2.86706  -1.55714
H     2.08108   0.67922  -1.50200
H     3.88563  -0.91842  -0.87370
H     5.47618  -1.55492   0.92279
H     4.96917  -0.98792   3.30199
H     2.86048   0.22879   3.85531
H     1.26431   0.84224   2.04165
H     0.61618  -0.80974  -2.27206
H     1.30277  -3.26924  -2.77420
H     2.67223  -2.16459  -2.46693
H     2.56209  -3.70450  -1.58259
H     1.41805  -3.84852   0.36585
H    -0.29161  -3.09008   1.95287
H    -1.90623  -1.35935   1.11528
H    -0.47466  -0.43608   1.51223
H    -2.51617  -3.21817  -2.00949
H    -1.28180  -3.22788  -0.75696
