20
Generated by autodE on: 2022-06-25. E = -457.715324 Ha
C    -3.13678  -0.48049   0.17246
N    -1.82567   0.13209   0.03443
C    -1.71552   1.52815   0.01624
C    -0.53295   2.16114  -0.03592
C     0.78937   1.43587  -0.08062
C     0.57241  -0.06792  -0.02537
C     1.70681  -1.00566  -0.03473
N     2.94188  -0.44722  -0.09839
O     1.57568  -2.24589   0.01275
C    -0.67948  -0.60451   0.02925
H    -3.04210  -1.56811   0.06454
H    -3.58232  -0.26221   1.15774
H    -3.82169  -0.11019  -0.60613
H    -2.66585   2.06417   0.04597
H    -0.52866   3.25345  -0.05169
H     1.34996   1.72189  -0.99461
H     1.43599   1.77343   0.75506
H     3.09079   0.55277  -0.13958
H     3.75073  -1.05880  -0.10588
H    -0.80708  -1.68749   0.06866
