15
Generated by autodE on: 2022-05-28. E = -345.885767 Ha
C    -3.05640   0.17581  -0.28012
C    -1.58814   0.11665  -0.33976
O    -0.94314  -0.06620   0.74586
C     0.41136  -0.15806   0.96119
C     1.35346  -0.05020  -0.06450
C     2.80922  -0.17237   0.34276
O     1.06747   0.13965  -1.28275
H    -3.48613  -0.60953  -0.92804
H    -3.40608   1.13851  -0.69468
H    -3.42343   0.05493   0.74808
H    -1.00644   0.21922  -1.25983
H     0.62574  -0.31795   2.01377
H     3.26908  -1.01171  -0.20462
H     2.94703  -0.33094   1.42181
H     3.34679   0.74228   0.04279
