15
Generated by autodE on: 2022-07-26. E = -345.886764 Ha
C    -2.09221   2.01018   0.27696
C    -1.42897   1.08522   1.20370
O    -0.51390   0.27512   0.82493
C    -0.01029   0.12271  -0.42412
C     1.00998  -0.82979  -0.63015
C     1.51418  -1.66054   0.53456
O     1.51180  -1.00022  -1.76829
H    -2.84149   2.61459   0.80219
H    -1.34848   2.67610  -0.20322
H    -2.57793   1.45029  -0.54633
H    -1.65563   1.01216   2.26997
H    -0.40871   0.74674  -1.22273
H     2.59752  -1.49045   0.64485
H     1.38028  -2.72686   0.29025
H     1.01756  -1.44505   1.48867
