13
Generated by autodE on: 2022-05-28. E = -406.788330 Ha
F    -0.81641   1.92501  -1.00098
C    -0.57656   0.80827  -0.32013
C    -1.33266  -0.27358  -0.14474
C    -0.38684  -1.21543   0.63897
C     0.75269  -1.65443  -0.31507
C     1.48742  -0.55577  -0.50744
C     0.78717   0.53490   0.34087
O     0.33244  -0.25643   1.45295
H    -2.32351  -0.51464  -0.52315
H    -0.86111  -1.99397   1.24625
H     0.85424  -2.64649  -0.75411
H     2.35574  -0.39336  -1.14475
H     1.37291   1.40957   0.64446
