28
Generated by autodE on: 2022-05-28. E = -752.682812 Ha. Imaginary frequency = -183.5 cm-1
C     2.89509  -0.64241   0.72429
C     2.36328  -0.00709  -0.54354
O     2.73718  -0.44287  -1.65736
C     1.41573   1.04264  -0.46231
O     1.00890   1.45445   0.75531
C     0.01043   2.24473   0.97215
C    -0.49882   3.19181  -0.04458
C    -1.65599   0.40501   0.36089
C    -1.52770  -0.69829   1.43325
C    -2.43206  -1.87775   0.99570
C    -1.82302  -2.40825  -0.06989
C    -0.55053  -1.54646  -0.26597
O    -0.23185  -1.24677   1.10137
C    -1.02856  -0.15175  -0.69888
F    -1.11317   0.19938  -1.98422
H     3.98650  -0.75053   0.62907
H     2.65770  -0.07954   1.63508
H     2.47164  -1.65543   0.81983
H     1.07426   1.58238  -1.34309
H    -0.19693   2.37445   2.03682
H    -1.37067   3.72845   0.35081
H     0.29550   3.92989  -0.27424
H    -0.77048   2.70643  -0.99352
H    -2.39236   1.20473   0.36539
H    -1.57914  -0.38373   2.48105
H    -3.38344  -2.14262   1.45636
H    -2.13507  -3.22482  -0.71994
H     0.28997  -1.97821  -0.81931
