40
Generated by autodE on: 2022-06-04. E = -1640.207137 Ha
C    -3.31901   3.48004   0.07232
O    -2.25454   2.56480   0.38471
C    -2.29745   1.38763  -0.23335
O    -3.15465   1.01438  -1.01167
N    -1.21936   0.60691   0.09565
O    -0.32890   0.99614   1.13970
N     0.89538   0.41779   0.76959
C     1.73380   1.30685   0.02938
C     3.09500   0.98189  -0.06139
C     3.96641   1.82210  -0.75607
C     3.49627   3.00672  -1.33168
C     2.14564   3.34351  -1.20331
C     1.25924   2.50045  -0.52871
C     0.53841  -0.91997   0.24223
C     0.74236  -1.95827   1.34619
O     1.29772  -3.02130   1.17453
O     0.26057  -1.54327   2.50718
C     0.36000  -2.45399   3.61473
C     1.19548  -1.28859  -1.13118
C     0.69595  -2.66435  -1.55415
C    -0.56118  -2.48198  -1.96937
C    -0.82970  -0.99718  -1.78045
O     0.45628  -0.41667  -2.00008
C    -0.96945  -0.73853  -0.24365
Cl   -2.16550  -1.88818   0.52704
H    -3.11964   4.37835   0.66701
H    -4.28950   3.04584   0.35010
H    -3.31164   3.72273  -0.99954
H     3.46455   0.07406   0.41927
H     5.02329   1.55582  -0.82946
H     4.18096   3.66927  -1.86545
H     1.76922   4.27324  -1.63630
H     0.21196   2.77896  -0.42957
H    -0.08833  -1.93579   4.46955
H     1.41289  -2.69311   3.81958
H    -0.19383  -3.37730   3.39232
H     2.27030  -1.10895  -1.19288
H     1.26795  -3.58508  -1.46992
H    -1.28969  -3.21521  -2.31033
H    -1.61000  -0.51781  -2.37749
