56
Generated by autodE on: 2022-06-09. E = -1779.978331 Ha
C     3.59468   1.15534   3.31469
N     3.25534   1.06983   1.90701
C     2.12276   0.47616   1.49955
O     1.29788   0.03734   2.30800
C     1.83165   0.39666  -0.03407
C     2.94685   1.03162  -0.86758
N     0.54543   1.00895  -0.31575
C     0.46671   2.45468  -0.26264
C    -0.58789   0.13753  -0.02304
C    -1.14659   0.23776   1.42983
O    -1.60504  -0.75496   2.00480
N    -1.24842   1.46122   1.97585
C    -1.65580   1.61837   3.35888
C    -1.77815   0.46781  -0.95252
C    -1.56045   1.07907  -2.19661
C    -2.62506   1.35578  -3.05707
C    -3.93348   1.02736  -2.69144
C    -4.16395   0.42518  -1.45226
C    -3.09791   0.15252  -0.59081
C     0.01902  -1.33086  -0.28711
C    -0.48978  -2.42834   0.67723
C    -1.83457  -3.04623   0.35228
O     0.20006  -2.89916   1.56074
C    -0.27676  -1.79788  -1.77927
C     0.34443  -3.17435  -1.97621
C     1.66010  -2.95600  -2.06703
C     1.81758  -1.44735  -1.92688
O     0.61778  -0.96509  -2.52302
C     1.58259  -1.09297  -0.41217
Cl    2.77585  -2.11868   0.50561
H     4.53336   1.71217   3.42177
H     2.80506   1.67545   3.87802
H     3.72114   0.15330   3.75627
H     3.93646   1.37919   1.22506
H     3.17864   2.04878  -0.52655
H     2.64538   1.10099  -1.91975
H     3.86245   0.42666  -0.80230
H    -0.56474   2.78667  -0.43315
H     0.81758   2.88497   0.69801
H     1.07653   2.90986  -1.05792
H    -0.76670   2.23609   1.54103
H    -0.92484   1.15859   4.04547
H    -2.63327   1.14644   3.53379
H    -1.73318   2.68863   3.58756
H    -0.54497   1.32577  -2.49661
H    -2.42768   1.83170  -4.02074
H    -4.76666   1.24372  -3.36422
H    -5.18060   0.16669  -1.14677
H    -3.30562  -0.31415   0.37142
H    -1.66935  -3.94523  -0.26245
H    -2.30733  -3.36550   1.28986
H    -2.50411  -2.37416  -0.19572
H    -1.31047  -1.66648  -2.10319
H    -0.19429  -4.12028  -1.97352
H     2.47451  -3.67294  -2.15288
H     2.70818  -0.99837  -2.37165
