38
Generated by autodE on: 2022-07-27. E = -860.040310 Ha
C     0.30503   1.66051   3.31449
N     0.12106   1.64400   1.87860
C    -0.55253   0.61992   1.26315
O    -1.26407  -0.14263   1.95500
C    -0.46294   0.51452  -0.19029
C    -1.45355  -0.17692  -0.99232
C    -1.08606  -0.76064  -2.23050
C    -2.02349  -1.40906  -3.03511
C    -3.35586  -1.52136  -2.62465
C    -3.73445  -0.96851  -1.39303
C    -2.80819  -0.30430  -0.59283
N     0.70398   0.96830  -0.82749
C     0.60433   1.94277  -1.92715
C     1.88326   0.62182  -0.33985
C     3.10860   1.43844  -0.56714
C     1.93920  -0.63966   0.48402
O     1.53788  -1.72945   0.02046
N     2.51643  -0.52314   1.69936
C     2.51285  -1.63003   2.63847
H     1.03597   2.43899   3.56904
H    -0.63378   1.88105   3.84935
H     0.68069   0.69346   3.68928
H     0.68605   2.27353   1.32152
H    -0.04203  -0.72566  -2.54752
H    -1.70430  -1.84651  -3.98491
H    -4.08846  -2.03696  -3.24985
H    -4.77190  -1.04796  -1.05699
H    -3.12721   0.12792   0.35535
H    -0.42981   1.95727  -2.28403
H     0.86239   2.94161  -1.54406
H     1.28345   1.67940  -2.74833
H     3.02765   2.40574  -0.03639
H     3.99966   0.91569  -0.20020
H     3.25138   1.66812  -1.63440
H     2.70556   0.40970   2.05396
H     2.97506  -1.30068   3.57667
H     3.08154  -2.48502   2.24284
H     1.48325  -1.96658   2.84297
