38
Generated by autodE on: 2022-06-09. E = -860.043790 Ha
C    -0.54666  -3.47019  -1.22423
N    -0.77942  -2.16740  -0.64110
C     0.01462  -1.10232  -0.94219
O     1.04427  -1.28447  -1.63272
C    -0.41051   0.20318  -0.44513
C    -1.72809   0.46156   0.14530
C    -2.93247  -0.01353  -0.42312
C    -4.16443   0.24866   0.17679
C    -4.23820   1.01065   1.34887
C    -3.05832   1.50117   1.91904
C    -1.82339   1.22260   1.33367
N     0.50480   1.24465  -0.45071
C     0.01676   2.58833  -0.82676
C     1.81575   1.09321  -0.25756
C     2.76678   2.16089  -0.70563
C     2.30582  -0.09094   0.50858
O     1.65452  -0.60243   1.43341
N     3.54760  -0.52386   0.20497
C     4.12414  -1.67247   0.87396
H    -0.69742  -3.47317  -2.31792
H    -1.24459  -4.18925  -0.77647
H     0.48231  -3.81153  -1.03049
H    -1.62741  -2.01959  -0.10840
H    -2.90121  -0.57767  -1.35702
H    -5.07876  -0.13040  -0.28683
H    -5.20520   1.22048   1.81173
H    -3.09845   2.09243   2.83754
H    -0.90601   1.58030   1.80623
H     0.29018   3.32879  -0.06456
H    -1.06820   2.55640  -0.94601
H     0.46747   2.87534  -1.78670
H     3.80205   1.89453  -0.46631
H     2.69817   2.33678  -1.79315
H     2.55947   3.12425  -0.21062
H     4.00259  -0.17063  -0.62944
H     5.15515  -1.80769   0.52459
H     4.13478  -1.52505   1.96407
H     3.55274  -2.59220   0.66227
