44
Generated by autodE on: 2022-06-01. E = -1179.344520 Ha
C    -3.77402  -3.03649  -0.11717
N    -2.59954  -2.27888   0.26993
C    -2.26462  -1.09940  -0.27474
O    -2.93151  -0.50273  -1.12969
C    -0.98930  -0.47918   0.19291
C     0.20423  -1.05695   0.42141
C     0.51194  -2.44156   0.32032
N     0.77454  -3.55596   0.21008
C     1.26710  -0.02544   0.76612
C     1.83848  -0.31493   2.18862
C     2.71256   0.72123   2.83349
O     1.51663  -1.33748   2.76500
C     2.44640  -0.16469  -0.23515
O     3.48265  -0.72115   0.14778
N     2.22536   0.29881  -1.46714
C     3.19562   0.20673  -2.54048
N     0.50242   1.21359   0.74867
C     1.12878   2.50229   0.52641
C    -0.89203   1.02507   0.33979
C    -1.88304   1.56084   1.37926
C    -1.12560   1.63415  -1.06903
O    -0.39555   1.39463  -2.01462
O    -2.15167   2.46209  -1.13134
C    -2.46006   3.02526  -2.41833
H    -4.31708  -2.48168  -0.89046
H    -3.48444  -4.02034  -0.51749
H    -4.43762  -3.19174   0.74690
H    -2.00196  -2.66532   0.99405
H     2.09245   1.58113   3.13339
H     3.17959   0.29187   3.72944
H     3.48029   1.08687   2.13861
H     1.29922   0.68662  -1.67735
H     3.32557   1.18665  -3.02342
H     4.15866  -0.12125  -2.13124
H     2.87195  -0.51700  -3.30591
H     1.25122   2.75854  -0.54182
H     2.12225   2.52701   0.98827
H     0.52604   3.29283   0.99944
H    -2.92038   1.38190   1.06729
H    -1.70220   1.05427   2.33722
H    -1.74256   2.64223   1.51523
H    -3.30698   3.70067  -2.25501
H    -2.73757   2.22233  -3.11606
H    -1.59564   3.57791  -2.81127
