32
Generated by autodE on: 2022-06-01. E = -801.482654 Ha
C    -2.67706  -2.04011  -1.61556
N    -2.26391  -0.78919  -1.02251
C    -1.16033  -0.69662  -0.25493
O    -0.44333  -1.70009  -0.02386
C    -0.85556   0.63036   0.30008
C    -1.54349   1.82530  -0.04502
C    -1.00024   3.17057   0.40441
O    -2.58106   1.83857  -0.76245
N     0.20961   0.65830   1.23851
C    -0.06717   1.20361   2.58191
C     1.33937   0.02368   1.04501
C     2.29155  -0.22323   2.16246
C     1.73271  -0.37779  -0.35255
O     1.50144   0.28588  -1.34124
O     2.46333  -1.48674  -0.34808
C     2.88803  -1.97744  -1.62925
H    -1.84864  -2.51422  -2.16611
H    -3.02915  -2.76435  -0.86060
H    -3.49935  -1.84798  -2.31685
H    -2.78570   0.08411  -1.14687
H    -1.57880   3.54123   1.26640
H    -1.15274   3.88302  -0.41940
H     0.06326   3.15950   0.67547
H     0.70782   1.92434   2.87086
H    -1.04997   1.67844   2.57700
H    -0.08219   0.37732   3.30727
H     2.63957   0.73089   2.59151
H     3.15865  -0.79249   1.81578
H     1.79424  -0.77942   2.97435
H     3.51204  -1.23057  -2.13983
H     2.01016  -2.21272  -2.24820
H     3.46654  -2.88549  -1.42650
