24
Generated by autodE on: 2022-10-06. E = -854.940934 Ha
O     0.67626   0.25588  -2.82655
C     0.85078   0.87563  -1.74746
O     0.95774   2.11819  -1.60080
C     0.93390   0.02429  -0.44300
C    -0.26933   0.27803   0.43332
C    -1.64269  -0.14484   0.12646
C    -2.70201   0.13030   1.01526
C    -3.99833  -0.28554   0.72186
C    -4.26481  -0.98635  -0.46201
C    -3.22230  -1.26317  -1.34958
C    -1.91967  -0.84765  -1.06025
N     0.00751   0.93959   1.50423
O     1.36666   1.19752   1.56619
C     2.04794   0.45960   0.51647
C     2.86033  -0.72820   1.08822
O     3.35152  -1.48872   0.21386
O     2.98467  -0.82160   2.33107
H     1.03005  -1.03348  -0.71626
H    -2.49527   0.67195   1.93929
H    -4.80872  -0.06461   1.42068
H    -5.28233  -1.31314  -0.68905
H    -3.42126  -1.80632  -2.27648
H    -1.11688  -1.04826  -1.77004
H     2.74668   1.16225   0.03925
