14
Generated by autodE on: 2022-10-06. E = -399.824079 Ha
O     3.50860  -1.39609  -0.12724
N     2.37799  -0.94730  -0.08606
C     1.29470  -0.51734  -0.04677
C    -0.03127   0.01138   0.00131
C    -1.12606  -0.79493  -0.37131
C    -2.41683  -0.27119  -0.32187
C    -2.62795   1.04772   0.09503
C    -1.54227   1.84912   0.46511
C    -0.24545   1.34011   0.42114
H    -0.95320  -1.82259  -0.69505
H    -3.26398  -0.89698  -0.61066
H    -3.64189   1.45219   0.13175
H    -1.70651   2.87863   0.79043
H     0.60661   1.95862   0.70786
