24
Generated by autodE on: 2022-10-06. E = -854.861471 Ha. Imaginary frequency = -398.0 cm-1
O     0.54900   0.26728  -2.92951
C     0.99284   0.84457  -1.89682
O     1.21021   2.07776  -1.77612
C     1.30122  -0.04933  -0.70444
C    -0.45778   0.40842   0.54269
C    -1.75991  -0.08797   0.16140
C    -2.81616  -0.03521   1.09827
C    -4.07670  -0.51768   0.75619
C    -4.30427  -1.06329  -0.51329
C    -3.26064  -1.11833  -1.44106
C    -1.99267  -0.63340  -1.11425
N     0.07184   0.99040   1.46975
O     1.16632   1.33322   1.90692
C     2.34403   0.24373   0.14125
C     2.89817  -0.74961   1.13505
O     2.20896  -1.77963   1.37881
O     4.01435  -0.46607   1.65050
H     0.97034  -1.09133  -0.75296
H    -2.63363   0.38555   2.08856
H    -4.88727  -0.47062   1.48716
H    -5.29391  -1.44376  -0.77620
H    -3.43291  -1.54031  -2.43384
H    -1.18624  -0.65713  -1.84773
H     2.89064   1.18076   0.01675
