37
Generated by autodE on: 2022-06-17. E = -750.718783 Ha
C     2.52000  -2.55591  -0.12388
O     2.13972  -1.22228   0.23846
C     1.39316  -0.54618  -0.64257
O     1.12124  -0.99393  -1.74055
C     0.93595   0.81978  -0.07875
C     2.18693   1.61869   0.29311
C     0.00595   1.51384  -1.10711
C    -0.08772   3.02688  -0.92184
C    -1.34132   0.76652  -0.90264
C    -2.60298   1.51626  -1.30954
C    -1.31832   0.34325   0.60170
C    -1.71417  -1.12791   0.70563
C    -3.16905  -1.42355   0.93140
O    -0.87971  -2.01587   0.60339
N     0.02619   0.64605   1.05781
C     0.46091   0.11136   2.32775
H     1.62543  -3.17762  -0.27296
H     3.11289  -2.94088   0.71401
H     3.12147  -2.55208  -1.04423
H     1.91038   2.56145   0.78317
H     2.76913   1.84722  -0.61242
H     2.83404   1.05116   0.97438
H     0.37607   1.31182  -2.12188
H    -0.79117   3.45842  -1.64841
H     0.88545   3.51017  -1.09050
H    -0.43545   3.30132   0.08556
H    -1.28139  -0.14923  -1.50832
H    -3.48923   0.87356  -1.19357
H    -2.55357   1.82364  -2.36619
H    -2.76147   2.41679  -0.69732
H    -2.05532   0.92970   1.17942
H    -3.43658  -1.11147   1.95540
H    -3.79563  -0.82934   0.24762
H    -3.37199  -2.49545   0.80817
H     1.37672   0.61994   2.66225
H    -0.31852   0.31180   3.08188
H     0.65501  -0.97685   2.33132
