12
Generated by autodE on: 2022-06-17. E = -157.299004 Ha
C    -1.63749  -0.37558   0.03269
C    -0.59781   0.70416  -0.01042
C     0.73655   0.55706  -0.02500
C     1.51662  -0.72337  -0.00189
H    -2.28222  -0.26338   0.92235
H    -1.20725  -1.38714   0.05185
H    -2.30899  -0.30822  -0.84154
H    -0.99062   1.72871  -0.03194
H     1.34264   1.47143  -0.05732
H     0.87659  -1.61668   0.02907
H     2.18943  -0.75654   0.87332
H     2.16742  -0.80179  -0.89073
