25
Generated by autodE on: 2022-06-17. E = -593.352166 Ha
C    -3.91267   0.96458   0.39960
O    -2.84140   0.14890   0.87814
C    -1.64128   0.31936   0.27757
O    -1.50673   1.13858  -0.62874
C    -0.61479  -0.55845   0.83643
C    -0.96125  -1.49377   1.95797
N     0.65396  -0.54705   0.35397
C     1.59438  -1.48722   1.00869
C     1.12499   0.23360  -0.65093
C     2.45106   0.28258  -1.21556
C     2.56882   1.28802  -2.34840
O     3.45276  -0.38409  -0.89407
H    -4.79118   0.68870   0.99512
H    -3.68438   2.03216   0.53715
H    -4.10500   0.77339  -0.66677
H    -2.01049  -1.37059   2.23560
H    -0.35069  -1.30707   2.85664
H    -0.80783  -2.54953   1.67879
H     1.21346  -2.50965   0.90272
H     2.56927  -1.39241   0.53100
H     1.66499  -1.23978   2.07453
H     0.39130   0.90170  -1.08310
H     2.22656   2.28586  -2.03136
H     1.93503   0.98250  -3.19740
H     3.61374   1.34480  -2.68094
