25
Generated by autodE on: 2022-07-27. E = -593.357135 Ha
C     1.22391  -2.65571  -0.11126
O     0.87328  -1.37064   0.41224
C     1.26278  -0.30950  -0.30222
O     2.05296  -0.38452  -1.22730
C     0.80879   0.98381   0.27136
C     1.77619   2.12168   0.19992
N    -0.35353   1.11044   0.90213
C    -0.55249   2.30325   1.75111
C    -1.46498   0.30753   0.74243
C    -1.75153  -0.37365  -0.46183
C    -3.13680  -0.97245  -0.59105
O    -0.95710  -0.46766  -1.43138
H     0.82806  -2.77157  -1.13025
H     0.76251  -3.39133   0.55811
H     2.31566  -2.78915  -0.12361
H     1.27653   3.07578  -0.02259
H     2.50963   1.91525  -0.58875
H     2.32852   2.24742   1.14847
H     0.34299   2.49344   2.35289
H    -1.40963   2.12235   2.40732
H    -0.76277   3.17531   1.11657
H    -2.23588   0.44215   1.49628
H    -3.76539  -0.80529   0.29423
H    -3.04324  -2.05722  -0.76520
H    -3.63556  -0.54635  -1.47693
