37
Generated by autodE on: 2022-06-17. E = -750.636007 Ha. Imaginary frequency = -347.1 cm-1
C     2.32745  -2.85541  -0.07730
O     1.76497  -1.65506   0.46227
C     1.47434  -0.68434  -0.42045
O     1.85215  -0.70520  -1.57683
C     0.94534   0.53798   0.29025
C     2.09790   1.48892   0.51481
C    -0.37267   1.47330  -1.25671
C     0.04919   2.92342  -1.17207
C    -1.68063   1.10477  -0.93774
C    -2.66363   2.04220  -0.29626
C    -1.16511  -0.26150   1.10177
C    -1.46958  -1.29818   0.16648
C    -2.89700  -1.80934   0.21135
O    -0.67799  -1.80601  -0.65681
N     0.02281   0.38815   1.29090
C     0.02464   1.37854   2.37992
H     1.63707  -3.30470  -0.80573
H     2.47104  -3.53360   0.77242
H     3.29211  -2.65133  -0.56480
H     1.77755   2.48536   0.83803
H     2.65831   1.59267  -0.42310
H     2.79099   1.08359   1.27311
H     0.11817   0.88878  -2.03696
H    -0.54065   3.53152  -1.88168
H     1.10718   3.06111  -1.43134
H    -0.11398   3.35574  -0.17377
H    -2.10429   0.25471  -1.47318
H    -3.54766   1.50720   0.08084
H    -3.02258   2.79504  -1.02575
H    -2.21940   2.60168   0.54028
H    -1.91154  -0.05213   1.86445
H    -3.56787  -1.18170   0.81339
H    -3.28635  -1.88586  -0.81549
H    -2.89474  -2.82826   0.63439
H    -0.16581   2.38938   1.99319
H    -0.76153   1.11666   3.09521
H     0.99078   1.36767   2.89928
