49
Generated by autodE on: 2022-06-03. E = -1390.038018 Ha
C     3.15394  -1.39087  -3.04019
N     2.42750  -0.75705  -1.95976
C     1.97519  -1.41853  -0.89175
O     2.17130  -2.61596  -0.65438
C     1.11202  -0.59084   0.07192
C     1.57026  -0.93082   1.50429
O     0.85529  -1.33360   2.39598
O     2.86120  -0.64276   1.65556
C     3.40464  -0.75602   2.98076
N     1.21409   0.84661  -0.17034
C    -0.00000   1.49815   0.28675
C    -0.26849   2.82932  -0.46691
C     0.48487   3.05755  -1.74016
O    -1.07678   3.61903  -0.01847
C     0.10397   1.84394   1.78778
O     1.17624   1.96970   2.34502
O    -1.06611   2.00191   2.38482
C    -1.04406   2.34099   3.78351
C    -1.12644   0.46000   0.01566
C    -1.81321   0.53931  -1.38692
O    -0.86119  -0.10709  -2.23858
C    -0.82511  -1.34903  -1.53206
C    -2.32101  -1.67128  -1.43075
C    -2.87856  -2.96230  -1.30372
N    -3.32314  -4.03548  -1.20359
C    -2.94855  -0.47689  -1.32759
C    -4.36355  -0.13751  -1.06433
C    -0.39136  -0.91251  -0.10165
H     3.87520  -0.68232  -3.46939
H     3.69460  -2.26414  -2.65295
H     2.47499  -1.72907  -3.84089
H     2.11634   0.20951  -2.04113
H     4.46473  -0.49227   2.89544
H     3.29468  -1.78396   3.35344
H     2.88965  -0.05786   3.65594
H     2.04561   1.25589   0.25655
H     0.40030   2.18439  -2.40269
H     0.10820   3.96413  -2.23088
H     1.55669   3.17281  -1.51060
H    -2.09302   2.42566   4.08780
H    -0.54058   1.54769   4.35357
H    -0.52128   3.29578   3.93411
H    -1.87309   0.50032   0.81247
H    -2.08216   1.53443  -1.75483
H    -0.19905  -2.09188  -2.03398
H    -4.99751  -1.03252  -1.00051
H    -4.75151   0.52937  -1.85236
H    -4.43941   0.42229  -0.11582
H    -0.70660  -1.64290   0.64792
