32
Generated by autodE on: 2022-07-27. E = -950.814129 Ha
C     1.81132  -3.70097  -2.75461
N     1.45996  -2.84889  -1.63668
C     0.87462  -1.65835  -1.82258
O     0.60952  -1.19177  -2.94309
C     0.52775  -0.86574  -0.60652
N    -0.13934   0.24128  -0.89489
C    -0.77582   1.20136  -0.20870
C    -1.26063   2.29099  -1.07147
C    -2.07135   3.41520  -0.49255
O    -0.99703   2.24971  -2.27826
C    -1.15215   0.97803   1.20058
O    -1.42688  -0.11932   1.65666
O    -1.20179   2.10183   1.91356
C    -1.64927   1.98585   3.27352
C     1.02782  -1.19882   0.73968
O     1.24694  -2.33713   1.12273
O     1.30274  -0.11354   1.45939
C     1.71009  -0.31119   2.82246
H     2.47352  -3.17331  -3.45790
H     0.91676  -4.02553  -3.31101
H     2.33212  -4.58738  -2.37349
H     1.57320  -3.17830  -0.68008
H    -0.18951   0.40361  -1.92416
H    -2.45451   4.03323  -1.31450
H    -2.90358   3.03693   0.11906
H    -1.44049   4.03009   0.16747
H    -1.65911   3.00598   3.67330
H    -2.65786   1.55065   3.31104
H    -0.95461   1.35704   3.84887
H     1.81967   0.69244   3.24783
H     2.66677  -0.85080   2.86076
H     0.94201  -0.87715   3.36735
