49
Generated by autodE on: 2022-06-03. E = -1389.954271 Ha. Imaginary frequency = -300.9 cm-1
C     2.84985  -3.05956  -2.07881
N     2.42863  -2.23973  -0.95893
C     2.05729  -0.96144  -1.12824
O     2.12542  -0.36505  -2.20961
C     1.48809  -0.25876   0.07893
C     2.00104  -0.74143   1.40611
O     1.71379  -1.81334   1.90451
O     2.96598   0.05588   1.85931
C     3.55153  -0.30193   3.12084
N     1.21789   1.03400  -0.17742
C     0.32705   1.85983   0.42511
C    -0.15832   2.91644  -0.49998
C    -1.21057   3.90557  -0.09103
O     0.28910   2.92545  -1.64858
C     0.08031   1.77045   1.86917
O     0.50987   0.87854   2.58705
O    -0.69896   2.74634   2.34311
C    -1.05794   2.66670   3.72906
C    -1.45921   0.12990   0.29168
C    -2.07409   0.43196  -1.08356
O    -1.01451  -0.00146  -1.95050
C    -0.90268  -1.32066  -1.40499
C    -2.37945  -1.78436  -1.53652
C    -2.81214  -3.10989  -1.73421
N    -3.15286  -4.21309  -1.90379
C    -3.12433  -0.67561  -1.32427
C    -4.58477  -0.47814  -1.21876
C    -0.66562  -0.98945   0.08587
H     3.62003  -2.53970  -2.66584
H     2.00561  -3.29280  -2.74922
H     3.26640  -3.99832  -1.69434
H     2.24031  -2.68361  -0.06402
H     4.30472   0.46585   3.33066
H     4.02248  -1.29320   3.05966
H     2.78111  -0.30548   3.90505
H     1.28837   1.24643  -1.18666
H    -1.51968   4.46578  -0.98262
H    -2.07408   3.40315   0.36548
H    -0.80800   4.59796   0.66301
H    -1.69949   3.53426   3.92131
H    -1.60596   1.73528   3.93190
H    -0.16114   2.70842   4.36336
H    -1.92524   0.43549   1.22605
H    -2.39887   1.45447  -1.29925
H    -0.16736  -1.93062  -1.93511
H    -5.14156  -1.41010  -1.38846
H    -4.92290   0.28548  -1.93941
H    -4.83310  -0.08984  -0.21514
H    -0.42641  -1.74357   0.83296
