33
Generated by autodE on: 2022-07-27. E = -781.611111 Ha
C    -0.30197   3.71509  -1.72785
N    -0.11552   2.30869  -1.44103
C    -0.79911   1.69380  -0.42942
O    -1.61502   2.36774   0.25387
C    -0.52052   0.29746  -0.18490
C    -0.86447  -0.39150   1.04875
O    -0.46793  -1.56062   1.29833
N    -1.65202   0.26749   1.93042
C    -2.10645  -0.34482   3.15645
N     0.14151  -0.47133  -1.16846
C    -0.42776  -0.48483  -2.53366
C     1.07767  -1.34418  -0.87156
C     1.48707  -2.39432  -1.84808
C     1.83193  -1.23367   0.43493
C     2.26848  -2.51001   1.09823
O     2.19537  -0.13834   0.83400
H    -1.36819   3.94652  -1.86927
H     0.07652   4.36587  -0.91950
H     0.23468   3.96303  -2.65310
H     0.70229   1.85230  -1.82682
H    -1.99323   1.17956   1.61994
H    -2.90597  -1.08951   2.99071
H    -1.27768  -0.85914   3.66624
H    -2.49962   0.43428   3.82325
H    -1.20224   0.28113  -2.60270
H    -0.87963  -1.46884  -2.72195
H     0.35590  -0.30016  -3.27971
H     0.63393  -3.04713  -2.09947
H     2.29550  -3.01477  -1.44749
H     1.83576  -1.94098  -2.78965
H     2.33585  -2.33772   2.18070
H     1.59096  -3.34616   0.88586
H     3.27606  -2.77136   0.73188
