24
Generated by autodE on: 2022-06-06. E = -688.223156 Ha
C     3.74972   0.79892  -0.54157
O     2.48685   0.11713  -0.55225
C     1.39071   0.87355  -0.40760
O     1.42155   2.08241  -0.28238
C     0.18560   0.02523  -0.44497
C    -1.02286   0.12316   0.15178
C    -1.63612   1.03947   1.13921
C    -1.09483   2.42053   1.35095
O    -2.59608   0.61483   1.77668
C    -1.72258  -1.21952  -0.18792
C    -0.98362  -2.31876   0.60548
C     0.21343  -2.41469   0.02059
C     0.17622  -1.37402  -1.12032
O    -1.20155  -1.44079  -1.50677
H     3.89353   1.32453   0.41345
H     3.79992   1.52222  -1.36828
H     4.51258   0.02234  -0.66736
H    -0.07033   2.36151   1.74995
H    -1.02698   2.96024   0.39525
H    -1.74093   2.95949   2.05588
H    -2.81576  -1.21276  -0.15788
H    -1.38030  -2.82638   1.48363
H     1.07891  -3.02191   0.28179
H     0.86063  -1.51066  -1.96257
