44
Generated by autodE on: 2022-10-21. E = -1145.166834 Ha. Imaginary frequency = -449.7 cm-1
C     3.35732   2.54890  -0.10240
N     2.35351   1.51577  -0.27963
C     2.69765   0.21743  -0.17650
O     3.86874  -0.15022  -0.01717
C     1.63611  -0.85011  -0.29111
N     0.81238  -0.94449  -1.37978
C     0.04070   0.02572  -1.85820
C    -1.05493  -0.36850  -2.74858
C    -1.89191   0.73965  -3.31050
O    -1.28516  -1.56215  -2.95554
C    -0.68642   0.44723   0.60861
O    -0.32844   1.78275   0.59431
C    -0.72764   2.60467   1.69717
C    -2.03385   0.19435   0.12370
O    -2.82776   1.10147  -0.13194
O    -2.37071  -1.10463  -0.02156
C    -3.68125  -1.37236  -0.52619
C     0.24110  -0.47279   1.19572
O     1.13709   0.03306   2.11925
C     0.66345   0.04482   3.47393
O    -0.26480  -1.70696   1.49295
C     0.63132  -2.77291   1.80831
H     2.89738   3.52652  -0.29504
H     3.77169   2.54672   0.92053
H     4.19062   2.40455  -0.80496
H     1.38249   1.76916  -0.07435
H     2.08011  -1.81096  -0.03254
H     0.46493  -1.88389  -1.60414
H     0.33007   1.06642  -1.75065
H    -1.25635   1.47618  -3.82755
H    -2.38684   1.26871  -2.47800
H    -2.64804   0.33750  -3.99672
H    -1.71876   2.30583   2.06801
H    -0.77823   3.63718   1.32409
H     0.00758   2.55303   2.51444
H    -3.81547  -0.94321  -1.52949
H    -3.76508  -2.46478  -0.57689
H    -4.45258  -0.96831   0.14634
H     0.68639  -0.96412   3.91414
H     1.34493   0.69850   4.03355
H    -0.36160   0.44105   3.53486
H     0.11704  -3.41463   2.53657
H     1.56819  -2.40429   2.24812
H     0.85420  -3.36274   0.90511
