39
Generated by autodE on: 2022-05-26. E = -973.069819 Ha. Imaginary frequency = -287.9 cm-1
C    -4.43060  -1.34315   1.14037
O    -3.50489  -0.41670   0.55785
C    -2.24901  -0.43695   1.03618
O    -1.89522  -1.18123   1.93837
C    -1.37426   0.51917   0.34813
C    -1.78315   1.54585  -0.68649
C    -2.04960   2.85033   0.13501
C    -0.63170   3.23584   0.64763
C     0.27903   2.11784   0.04441
C    -0.41417   1.88601  -1.31429
C    -0.10541   0.84116   0.77801
C     1.18160  -0.72901  -0.24703
C     2.55962  -0.33225  -0.20213
C     3.15068   0.08797   1.00500
C     4.48584   0.48373   1.01613
C     5.23022   0.47787  -0.16939
C     4.64263   0.06986  -1.37277
C     3.31068  -0.33497  -1.39715
N     0.39435  -1.47787  -0.77130
N    -0.84730  -1.52440  -1.13544
C    -1.51073  -2.65810  -0.98180
N    -2.22824  -3.58119  -0.89507
H    -4.54181  -1.15487   2.21829
H    -4.09016  -2.37600   0.98164
H    -5.38597  -1.17779   0.62857
H    -2.59564   1.24903  -1.35827
H    -2.77202   2.67731   0.94530
H    -2.46256   3.62630  -0.52646
H    -0.56436   3.26846   1.74452
H    -0.31812   4.21725   0.26197
H     1.34941   2.35582   0.03725
H    -0.44574   2.79003  -1.94004
H     0.01579   1.05660  -1.89412
H     0.30158   0.52921   1.74132
H     2.56154   0.09693   1.92259
H     4.94876   0.80277   1.95196
H     6.27505   0.79595  -0.15598
H     5.22629   0.06810  -2.29558
H     2.83837  -0.65413  -2.32768
