57
Generated by autodE on: 2022-06-21. E = -1026.545155 Ha
C     3.59499   0.58342  -4.48253
C     3.22408   0.60881  -3.18614
C     4.21314   0.89206  -2.08548
C     1.82291   0.37248  -2.81896
C     1.34387   0.35407  -1.56168
C    -0.09191   0.13841  -1.20985
C    -0.72382   1.25377  -0.30731
C     0.27677   2.21739   0.31028
C     0.72774   2.07585   1.62831
C     1.70216   2.93567   2.14662
C     2.24262   3.94989   1.35039
C     1.79004   4.10666   0.03492
C     0.81069   3.25100  -0.47486
N    -1.51330   0.53822   0.68330
C    -2.62213   1.30269   1.20881
C    -1.77053  -0.84247   0.24233
C    -2.95754  -0.89704  -0.74330
C    -2.03642  -1.75624   1.44118
C    -1.64499  -1.38458   2.73809
C    -1.83170  -2.24246   3.82469
C    -2.41353  -3.50047   3.63994
C    -2.80909  -3.88473   2.35610
C    -2.62698  -3.01973   1.27213
C    -0.39722  -1.19683  -0.45960
C    -0.48067  -2.36233  -1.44508
C     0.69632  -1.52330   0.56894
H     4.63082   0.76248  -4.78450
H     2.86768   0.38207  -5.27521
H     4.26284   0.05445  -1.37000
H     3.91285   1.78159  -1.50622
H     5.22136   1.06293  -2.48858
H     1.12768   0.21466  -3.65237
H     2.02988   0.51670  -0.72811
H    -0.66499   0.11609  -2.14658
H    -1.37520   1.86376  -0.96615
H     0.30262   1.28264   2.24457
H     2.04151   2.81124   3.17821
H     3.00638   4.61956   1.75327
H     2.19896   4.90162  -0.59390
H     0.45987   3.37674  -1.50260
H    -3.32923   1.65131   0.42670
H    -2.24404   2.19850   1.72792
H    -3.19066   0.71152   1.94115
H    -3.10855  -1.89541  -1.17045
H    -3.88759  -0.61570  -0.22848
H    -2.80874  -0.19729  -1.57870
H    -1.17987  -0.41072   2.88741
H    -1.51842  -1.92534   4.82277
H    -2.55914  -4.17348   4.48842
H    -3.26636  -4.86395   2.19297
H    -2.94678  -3.34650   0.28252
H    -1.19840  -2.17816  -2.25648
H    -0.76582  -3.29538  -0.93412
H     0.50571  -2.52506  -1.90761
H     0.46319  -2.45370   1.10566
H     0.82800  -0.72481   1.31014
H     1.65875  -1.67236   0.05763
