34
Generated by autodE on: 2022-06-21. E = -674.959023 Ha
C    -0.12197  -1.84156  -0.26980
C    -0.75201  -0.64982   0.36011
C    -2.02636  -0.12371  -0.12292
C    -3.02411  -0.97749  -0.65385
C    -4.23387  -0.47067  -1.12412
C    -4.49249   0.90529  -1.09225
C    -3.51255   1.76847  -0.58974
C    -2.29904   1.26702  -0.12155
N    -0.08921  -0.03543   1.37730
C    -0.83133   0.65113   2.45249
C     1.25803  -0.11462   1.57254
C     2.27577  -0.11535   0.56466
C     3.61931  -0.36845   0.96648
C     4.67453  -0.30395   0.06518
C     4.44706   0.02175  -1.28218
C     3.13855   0.28775  -1.69778
C     2.06779   0.21063  -0.80523
H     0.49011  -2.38126   0.47333
H    -0.88625  -2.51674  -0.67651
H     0.56437  -1.59571  -1.10576
H    -2.85897  -2.05570  -0.67691
H    -4.98707  -1.15922  -1.51557
H    -5.44110   1.29944  -1.46369
H    -3.68756   2.84733  -0.57750
H    -1.53588   1.96468   0.22537
H    -1.89298   0.38821   2.41383
H    -0.41413   0.31136   3.41088
H    -0.70633   1.73981   2.38593
H     1.57272  -0.05572   2.61587
H     3.81439  -0.61589   2.01357
H     5.69089  -0.50938   0.41230
H     5.27669   0.06736  -1.99118
H     2.94223   0.55883  -2.73884
H     1.06673   0.46035  -1.15830
