34
Generated by autodE on: 2022-07-27. E = -674.955888 Ha
C    -2.13974  -1.11133  -0.94190
C    -1.09981  -0.92128   0.11320
C    -1.08785  -1.80197   1.28255
C     0.09248  -2.36114   1.83225
C     0.04297  -3.23548   2.91769
C    -1.18209  -3.59685   3.48881
C    -2.36271  -3.07358   2.94855
C    -2.31802  -2.19669   1.86615
N    -0.18869   0.06299  -0.08876
C     0.73682   0.42916   1.00263
C    -0.19466   0.85006  -1.20695
C     0.76708   1.82812  -1.63730
C     2.12315   1.95976  -1.22154
C     2.95522   2.94109  -1.76183
C     2.49684   3.82620  -2.74319
C     1.17280   3.70002  -3.19019
C     0.33346   2.73083  -2.65473
H    -1.66763  -1.28505  -1.92858
H    -2.77722  -1.97368  -0.71720
H    -2.78699  -0.22165  -1.06779
H     1.05955  -2.13983   1.38118
H     0.97377  -3.65266   3.31054
H    -1.21695  -4.28350   4.33768
H    -3.32956  -3.34445   3.38047
H    -3.25133  -1.78786   1.47408
H     0.88418   1.51296   0.98420
H     1.70525  -0.07201   0.89509
H     0.29255   0.15080   1.96142
H    -1.05839   0.72641  -1.85139
H     2.55062   1.27056  -0.49689
H     3.99025   3.00320  -1.41424
H     3.15715   4.59008  -3.15953
H     0.79029   4.37148  -3.96389
H    -0.69641   2.65387  -3.01398
