57
Generated by autodE on: 2022-06-21. E = -1026.465600 Ha. Imaginary frequency = -303.4 cm-1
C     4.50917   1.89068  -0.99493
C     3.63975   0.98774  -0.48247
C     3.84909   0.40662   0.89395
C     2.45777   0.58447  -1.23166
C     1.52120  -0.31412  -0.81117
C     0.31371  -0.63688  -1.51544
C    -1.03205   1.11576  -0.74632
C    -0.29658   2.32934  -1.03481
C     0.76707   2.86927  -0.27028
C     1.48726   3.97749  -0.72445
C     1.19956   4.56330  -1.95803
C     0.17105   4.02562  -2.74635
C    -0.55757   2.93156  -2.29363
N    -1.29890   0.53553   0.45212
C    -0.80067   1.14587   1.68548
C    -1.92557  -0.72677   0.43206
C    -3.26482  -0.75897  -0.27488
C    -1.81720  -1.57400   1.63572
C    -0.61254  -1.69507   2.37165
C    -0.50288  -2.55045   3.46482
C    -1.58819  -3.33959   3.86455
C    -2.78246  -3.25322   3.14522
C    -2.89581  -2.38772   2.05438
C    -0.53938  -1.72149  -1.18503
C    -1.51593  -2.13129  -2.26446
C    -0.00489  -2.90322  -0.41154
H     5.39084   2.21697  -0.43634
H     4.35162   2.32627  -1.98652
H     3.91452  -0.69347   0.86055
H     3.00092   0.64928   1.55665
H     4.76882   0.79285   1.35587
H     2.31994   1.06276  -2.20799
H     1.66079  -0.78722   0.16539
H     0.19581  -0.18094  -2.50297
H    -1.69667   0.80721  -1.54740
H     1.05312   2.42789   0.67892
H     2.30105   4.36920  -0.10985
H     1.77318   5.42388  -2.30989
H    -0.06184   4.46615  -3.71895
H    -1.35210   2.51590  -2.91869
H    -0.96060   2.22960   1.62707
H     0.26679   0.95754   1.86460
H    -1.37269   0.76310   2.53592
H    -3.57493  -1.78059  -0.52112
H    -4.04707  -0.32808   0.37835
H    -3.27129  -0.18892  -1.20911
H     0.26702  -1.13244   2.06493
H     0.44710  -2.61307   4.00180
H    -1.49988  -4.01533   4.71840
H    -3.64286  -3.86137   3.43639
H    -3.84768  -2.34523   1.52686
H    -1.98823  -1.26588  -2.75210
H    -2.30929  -2.78855  -1.88054
H    -0.98606  -2.70089  -3.05127
H    -0.81625  -3.50755   0.02155
H     0.67450  -2.62642   0.40259
H     0.56104  -3.56291  -1.09708
