40
Generated by autodE on: 2022-06-20. E = -1118.912851 Ha
C    -3.62311  -2.61312  -1.17000
N    -2.40631  -2.07284  -0.59487
C    -2.36337  -0.97429   0.15298
O    -3.33606  -0.28237   0.47195
C    -0.94779  -0.58112   0.65934
C    -0.94293  -0.78295   2.11751
N    -0.92195  -0.95644   3.26380
N     0.09699  -1.45473   0.07915
C     1.12215  -0.73814  -0.17643
C     2.38273  -1.34089  -0.72232
O     3.48177  -0.96568  -0.37250
O     2.14775  -2.30887  -1.59530
C     3.29932  -2.96887  -2.15290
C     1.02401   0.71827   0.23122
N     1.76128   1.68195  -0.55986
C     2.93802   2.24765   0.08932
C     1.04985   2.50975  -1.41623
C    -0.24986   2.35567  -1.72996
C    -1.06052   1.25054  -1.12575
C    -0.51827   0.89029   0.28030
C    -0.90155   1.98010   1.29576
N    -2.19944   2.04245   1.61886
O    -0.04974   2.75362   1.74215
H    -4.47100  -1.98698  -0.86990
H    -3.55663  -2.62657  -2.26825
H    -3.79088  -3.64131  -0.81617
H    -1.51841  -2.54142  -0.76406
H     2.90718  -3.71155  -2.85615
H     3.87616  -3.45943  -1.35629
H     3.93600  -2.24151  -2.67610
H     1.39976   0.76653   1.26734
H     3.50545   2.84356  -0.63915
H     2.66673   2.89781   0.94139
H     3.58819   1.44076   0.45030
H     1.64513   3.31931  -1.84623
H    -0.71484   3.03495  -2.44554
H    -2.11970   1.52772  -1.04923
H    -1.02539   0.34524  -1.75769
H    -2.85170   1.33011   1.27653
H    -2.50236   2.73897   2.29314
