20
Generated by autodE on: 2022-06-20. E = -457.715309 Ha
C    -3.08317  -0.62297  -0.46295
N    -1.82946  -0.02785  -0.03045
C    -1.85082   1.12396   0.76591
C    -0.73193   1.73012   1.19351
C     0.65376   1.23461   0.85993
C     0.57699  -0.01303  -0.00499
C     1.79392  -0.69771  -0.46883
N     2.97172  -0.14935  -0.07722
O     1.77865  -1.72299  -1.18013
C    -0.61977  -0.54525  -0.38263
H    -2.87219  -1.52232  -1.05488
H    -3.66250   0.07905  -1.08485
H    -3.70261  -0.90991   0.40216
H    -2.84807   1.49193   1.01394
H    -0.82990   2.62461   1.81292
H     1.23146   2.03392   0.35191
H     1.22116   1.03595   1.79236
H     3.83495  -0.59101  -0.37396
H     3.02458   0.67993   0.50020
H    -0.64466  -1.44139  -1.00462
