20
Generated by autodE on: 2022-06-20. E = -661.125670 Ha
C    -4.22643   0.26127   1.39893
N    -3.30290   0.02446   0.30629
C    -1.97037   0.07162   0.49784
O    -1.44863   0.29812   1.59532
C    -1.12623  -0.17056  -0.70365
C    -1.63022  -0.43991  -1.99449
N    -2.08913  -0.65978  -3.04560
N     0.17977  -0.12299  -0.51765
C     1.31106  -0.05696  -0.22582
C     2.73882   0.02359  -0.02801
O     3.51294  -0.15555  -0.94432
O     3.02974   0.30547   1.23170
C     4.43149   0.41704   1.55811
H    -5.25072   0.13953   1.02700
H    -4.06103  -0.45237   2.22109
H    -4.11640   1.27937   1.80604
H    -3.67592  -0.14524  -0.62223
H     4.89083   1.22382   0.97042
H     4.46579   0.65072   2.62734
H     4.94218  -0.53394   1.35276
