40
Generated by autodE on: 2022-06-20. E = -1118.832832 Ha. Imaginary frequency = -384.5 cm-1
C    -2.19363  -1.51750  -2.81464
N    -1.51602  -1.54152  -1.53472
C    -2.06108  -1.04699  -0.40846
O    -3.23727  -0.67742  -0.29756
C    -1.15796  -0.94088   0.77544
C    -1.77719  -0.93161   2.05156
N    -2.29003  -0.89834   3.09743
N     0.13745  -1.27330   0.67484
C     1.17322  -0.71181   0.35102
C     2.54557  -1.22238   0.13226
O     3.46325  -0.92995   0.86605
O     2.62111  -1.93953  -0.97947
C     3.93997  -2.34473  -1.40057
C     0.86817   1.35444  -0.03791
N     1.07702   1.54371  -1.39669
C     2.38559   1.27898  -1.97385
C    -0.03665   1.57419  -2.24184
C    -1.27981   1.80121  -1.79042
C    -1.54611   2.08132  -0.33395
C    -0.41354   1.55849   0.52354
C    -0.45275   1.66826   1.99463
N    -1.57497   2.20390   2.53291
O     0.49976   1.30976   2.71197
H    -3.26645  -1.36231  -2.65142
H    -1.81070  -0.70235  -3.44995
H    -2.04605  -2.47236  -3.33952
H    -0.52369  -1.75491  -1.53622
H     3.79671  -2.88493  -2.34237
H     4.39336  -2.99998  -0.64439
H     4.56951  -1.45696  -1.55522
H     1.73613   1.53623   0.59892
H     2.45208   0.26035  -2.39183
H     2.59752   1.99756  -2.77892
H     3.15586   1.39223  -1.19950
H     0.18150   1.40500  -3.29843
H    -2.11250   1.80753  -2.49521
H    -1.66489   3.17335  -0.16435
H    -2.50682   1.63371  -0.03234
H    -2.41224   2.33801   1.97865
H    -1.69104   2.12833   3.53872
