63
Generated by autodE on: 2022-06-07. E = -1458.046233 Ha
C     3.94409   0.27711  -3.38203
N     2.84736  -0.19094  -2.56167
C     2.75102   0.10719  -1.26507
O     3.61428   0.75906  -0.66377
C     1.47959  -0.44654  -0.55127
C     1.96848  -1.26592   0.66325
O     1.48199  -1.32347   1.76925
O     2.98784  -2.04536   0.28146
C     3.44643  -3.02324   1.22727
N     0.81485  -1.40087  -1.44055
C    -0.61406  -1.45067  -1.23500
C    -1.03244  -2.71889  -0.47914
C    -2.46206  -3.17344  -0.59859
O    -0.19772  -3.39751   0.09843
C    -1.03658  -0.07062  -0.59678
C    -2.04459  -0.34068   0.51918
C    -3.41692  -0.12284   0.31948
C    -4.35409  -0.45049   1.30431
C    -3.93955  -1.01099   2.51418
C    -2.57682  -1.24463   2.72270
C    -1.64465  -0.91519   1.73812
C    -1.58694   0.83723  -1.74248
C    -1.93856   2.25407  -1.23169
C    -0.54713   2.92412  -1.06865
C     0.42502   1.77106  -1.38017
C    -0.32188   1.12893  -2.56211
C     0.38168   0.66027  -0.24640
C     0.54174   1.35052   1.11537
C     1.82040   1.60692   1.63979
C     2.00030   2.31515   2.83022
C     0.90023   2.80380   3.53864
C    -0.37728   2.58766   3.01981
C    -0.54934   1.88072   1.82646
H     3.83420  -0.13340  -4.39315
H     3.95524   1.37755  -3.44436
H     4.91155  -0.04722  -2.96812
H     2.07976  -0.73283  -2.95130
H     2.63185  -3.72067   1.46992
H     3.79986  -2.53302   2.14526
H     4.27049  -3.55361   0.73689
H     1.23635  -2.32579  -1.37072
H    -1.12893  -1.53777  -2.20802
H    -2.88033  -3.34582   0.40379
H    -3.09129  -2.46242  -1.14554
H    -2.46136  -4.13992  -1.13000
H    -3.77658   0.29373  -0.62005
H    -5.41538  -0.26952   1.11739
H    -4.67039  -1.26712   3.28491
H    -2.23316  -1.68647   3.66127
H    -0.58919  -1.10238   1.91956
H    -2.40242   0.34742  -2.28909
H    -2.51773   2.24603  -0.30036
H    -2.55088   2.77349  -1.98341
H    -0.39803   3.71062  -1.82296
H    -0.39412   3.38495  -0.08680
H     1.44735   2.12321  -1.56091
H    -0.50640   1.85260  -3.36980
H     0.15261   0.24274  -2.99043
H     2.70031   1.26096   1.10145
H     3.01403   2.48395   3.20265
H     1.03689   3.35332   4.47316
H    -1.25692   2.97488   3.53993
H    -1.56178   1.76140   1.45644
