39
Generated by autodE on: 2022-06-19. E = -1043.617004 Ha
C     4.02995  -1.27207   0.00758
O     3.03791  -0.28187   0.32995
C     1.77164  -0.62624   0.15483
O     1.39942  -1.73359  -0.16932
C     0.77949   0.48858   0.58179
C     1.51580   1.72917   0.88907
N     2.06168   2.72015   1.13994
N     0.00096   0.06833   1.74343
C     0.72792  -0.40556   2.90872
C    -1.18168  -0.67216   1.30032
C    -1.14102  -2.10849   1.62353
N    -1.12370  -3.23621   1.89671
C    -1.27214  -0.46723  -0.24665
N    -2.61540  -0.33945  -0.74828
C    -3.13157  -1.45627  -1.52581
C    -3.13969   0.92318  -0.94923
C    -2.47690   2.07127  -0.69952
C    -1.06569   2.08369  -0.19244
C    -0.32740   0.75007  -0.48815
C     0.27812   0.76871  -1.88947
N    -0.58389   0.90632  -2.90700
O     1.49911   0.66217  -2.05265
H     3.96544  -1.52959  -1.05917
H     4.99792  -0.81110   0.23268
H     3.88067  -2.17359   0.61787
H     0.03175  -0.50923   3.75323
H     1.22789  -1.38019   2.75127
H     1.49040   0.33606   3.18763
H    -2.08721  -0.26947   1.78292
H    -0.81354  -1.33671  -0.72609
H    -4.21042  -1.32096  -1.68608
H    -2.64067  -1.54310  -2.51290
H    -2.98251  -2.39840  -0.97839
H    -4.16004   0.93180  -1.34084
H    -2.98496   3.02353  -0.85776
H    -0.49979   2.91604  -0.63866
H    -1.04874   2.25346   0.89645
H    -1.56341   1.12314  -2.74105
H    -0.21423   0.98583  -3.85026
