20
Generated by autodE on: 2022-06-19. E = -457.715319 Ha
C     3.11319   0.62150   0.09288
N     1.82790  -0.05794   0.08569
C     1.78208  -1.44837  -0.07593
C     0.62968  -2.12769  -0.18812
C    -0.72537  -1.46475  -0.15514
C    -0.57564   0.04084  -0.00709
C    -1.74979   0.92729   0.03885
N    -2.95924   0.32295  -0.07395
O    -1.67165   2.16540   0.17421
C     0.65018   0.62752   0.09560
H     3.59961   0.57952  -0.89662
H     2.96597   1.67402   0.36596
H     3.78855   0.16068   0.82992
H     2.75607  -1.94054  -0.09980
H     0.67583  -3.21293  -0.30422
H    -1.29464  -1.71849  -1.07296
H    -1.33522  -1.88451   0.67146
H    -3.06441  -0.67604  -0.19578
H    -3.79334   0.89940  -0.05407
H     0.72803   1.71105   0.19834
