19
Generated by autodE on: 2022-07-27. E = -585.861951 Ha
C     3.07316   0.24503  -1.27105
O     1.82148   0.77790  -0.81956
C     0.97813  -0.08499  -0.22743
O     1.21722  -1.27618  -0.10100
C    -0.20176   0.60092   0.28838
C    -0.19267   2.00968   0.38392
N    -0.18211   3.17568   0.44848
N    -1.23465  -0.08523   0.88677
C    -1.99716   0.62850   1.93646
C    -1.61924  -1.32138   0.60778
C    -1.26540  -2.02501  -0.56174
N    -1.09551  -2.63857  -1.53838
H     2.90934  -0.55338  -2.00924
H     3.60694   1.08368  -1.73283
H     3.65287  -0.15267  -0.42515
H    -2.55445   1.44896   1.46576
H    -2.70044  -0.06777   2.40207
H    -1.29773   1.03073   2.67875
H    -2.34294  -1.78823   1.27708
