19
Generated by autodE on: 2022-06-19. E = -585.866343 Ha
C     3.69396   0.46337  -0.52965
O     2.43673   0.75455   0.09371
C     1.37661   0.04432  -0.32446
O     1.45462  -0.81710  -1.19138
C     0.16561   0.44010   0.38308
C     0.24787   1.45801   1.35883
N     0.33239   2.30138   2.16183
N    -1.05970  -0.14031   0.14455
C    -2.18859   0.37028   0.95709
C    -1.27701  -1.09876  -0.74439
C    -2.54968  -1.66637  -0.95272
N    -3.56711  -2.18802  -1.18675
H     3.64357   0.65792  -1.61093
H     3.97687  -0.58564  -0.35947
H     4.42335   1.13262  -0.05901
H    -1.96099   0.21068   2.01776
H    -3.10336  -0.16419   0.68906
H    -2.31016   1.44159   0.75716
H    -0.43102  -1.45609  -1.33045
