39
Generated by autodE on: 2022-06-19. E = -1043.555378 Ha. Imaginary frequency = -465.0 cm-1
C     3.97022  -0.01131  -0.61348
O     2.77495   0.52254  -0.02407
C     1.95696  -0.34912   0.56780
O     2.20775  -1.52682   0.71628
C     0.71106   0.31447   1.03824
C     0.87292   1.67257   1.43454
N     0.98543   2.80238   1.69437
N    -0.26145  -0.42387   1.68140
C    -1.08110   0.27534   2.68432
C    -0.90480  -1.44249   0.99080
C    -0.26091  -2.60540   0.45702
N     0.04724  -3.63094  -0.00151
C    -1.54383  -0.43833  -0.73678
N    -2.82562   0.04324  -0.43672
C    -3.85834  -0.92021  -0.10003
C    -2.97029   1.35296   0.02336
C    -2.04606   2.29886  -0.20479
C    -0.83858   1.98202  -1.04144
C    -0.49474   0.50272  -1.01416
C     0.57520   0.01811  -1.93131
N     1.28532   0.96535  -2.58441
O     0.79644  -1.18949  -2.11246
H     3.71244  -0.79916  -1.33505
H     4.45590   0.82964  -1.12052
H     4.63029  -0.42228   0.16365
H    -1.61921   1.12390   2.23580
H    -1.80352  -0.43179   3.10397
H    -0.43297   0.63975   3.49099
H    -1.82688  -1.75509   1.48916
H    -1.54361  -1.35093  -1.33536
H    -3.84652  -1.18927   0.97257
H    -4.84846  -0.50770  -0.33903
H    -3.71256  -1.83655  -0.68825
H    -3.89195   1.55118   0.57463
H    -2.19680   3.31331   0.16567
H    -1.03484   2.26328  -2.09778
H     0.01910   2.60234  -0.73756
H     1.24430   1.94117  -2.31687
H     2.09971   0.65907  -3.10789
