18
Generated by autodE on: 2022-07-27. E = -642.790394 Ha
C    -0.54055   2.59019  -2.63129
O    -0.34860   2.48168  -1.21114
C    -0.61128   1.29891  -0.67042
O    -1.00944   0.32035  -1.27727
N    -0.51398   1.41920   0.71777
O    -0.48027   0.27028   1.37167
C     0.03089  -0.86907   0.98850
C    -0.27265  -1.92850   1.88793
N    -0.52528  -2.82370   2.58724
C     1.10251  -1.03111  -0.04621
C     1.56629  -2.42791  -0.30708
O     1.58467  -0.03738  -0.55976
H    -1.60154   2.45116  -2.88427
H     0.06694   1.83855  -3.15505
H    -0.21536   3.60134  -2.90018
H     2.32723  -2.41437  -1.09668
H     1.98738  -2.87319   0.60875
H     0.70779  -3.04954  -0.61098
