44
Generated by autodE on: 2022-06-26. E = -1332.253415 Ha. Imaginary frequency = -216.5 cm-1
C    -2.38674   0.98043  -3.33713
O    -2.47174   0.62121  -1.95136
C    -1.74089   1.35752  -1.10549
O    -1.13620   2.36906  -1.40789
N    -1.89993   0.97422   0.21964
O    -2.30274  -0.29989   0.43467
C    -1.59543  -1.36844   0.13356
C    -2.09633  -2.52659   0.79665
N    -2.47827  -3.47540   1.34999
C    -0.54435  -1.52567  -0.91362
C    -0.01423  -2.91493  -1.11056
O    -0.12545  -0.55878  -1.53233
C     0.12337  -0.36579   1.94904
C    -0.55794  -1.05591   3.08674
C     1.30036  -1.04350   1.35878
O     1.64207  -2.16469   1.71491
C     2.06891  -0.34687   0.28073
O     2.90390  -1.17395  -0.33983
C     3.42227  -0.87972  -1.64551
C     1.90024   0.99486   0.06989
O     2.71979   1.68373  -0.75854
C     2.13483   2.37396  -1.87411
C     0.88937   1.74416   0.83627
O     0.87759   2.96913   0.81383
C    -0.09302   0.99425   1.69621
C    -0.88754   1.82669   2.65315
H    -2.73118   2.01289  -3.49077
H    -3.04185   0.27966  -3.86754
H    -1.35272   0.87735  -3.69601
H     0.35131  -3.34074  -0.16433
H     0.80096  -2.88134  -1.84337
H    -0.82070  -3.57051  -1.47782
H    -1.63918  -0.85803   3.08809
H    -0.37996  -2.13680   3.06072
H    -0.16165  -0.66715   4.04188
H     3.81990  -1.83119  -2.02006
H     2.61519  -0.52826  -2.30351
H     4.22299  -0.13184  -1.59418
H     2.97579   2.73185  -2.48168
H     1.52760   3.22578  -1.54242
H     1.51608   1.68532  -2.46907
H    -1.83116   1.33957   2.92508
H    -1.09412   2.81639   2.23252
H    -0.29779   1.95695   3.57813
