41
Generated by autodE on: 2022-10-21. E = -3588.904241 Ha
C     0.14280   4.38172   1.72406
N    -0.07298   3.26072   0.83214
C    -0.55800   2.09335   1.26523
O    -0.92955   1.89585   2.42714
C    -0.60223   0.96186   0.22049
C    -2.01505   0.38694   0.10986
C    -3.11555   1.22444   0.36123
C    -4.42181   0.77816   0.15403
C    -4.65555  -0.51655  -0.31853
C    -3.57013  -1.35290  -0.58759
C    -2.26185  -0.90675  -0.37758
O    -0.24404   1.52559  -1.04967
C     0.33345   0.51985  -1.86338
C     1.16114  -0.35695  -0.91946
Br    1.14212  -2.21270  -1.54853
C     2.62727   0.14749  -0.72544
C     3.34177  -0.80054   0.22550
C     2.82264  -0.54553   1.43157
C     1.81060   0.56422   1.20970
O     2.37858   1.28613   0.10798
C     0.54775  -0.09907   0.51696
O     0.14033  -1.27540   1.13552
C    -0.29304  -1.19018   2.48557
H    -0.75765   4.57395   2.32517
H     0.98068   4.19186   2.41590
H     0.37210   5.27402   1.12874
H     0.27663   3.28441  -0.12074
H    -2.96006   2.24308   0.71964
H    -5.25987   1.44741   0.36236
H    -5.67727  -0.86920  -0.47792
H    -3.73649  -2.36547  -0.96284
H    -1.43794  -1.58557  -0.58378
H     0.94773   1.01158  -2.63032
H    -0.45050  -0.07267  -2.36153
H     3.13042   0.42848  -1.65719
H     4.05348  -1.57095  -0.06658
H     2.99833  -1.05733   2.37695
H     1.60011   1.22396   2.05509
H     0.47372  -0.73965   3.13764
H    -1.22069  -0.60729   2.58233
H    -0.47541  -2.22248   2.81413
