24
Generated by autodE on: 2022-10-21. E = -593.089907 Ha
C     0.57363   2.78659   0.41249
O     1.06387   1.59527   0.34746
C     0.56237   0.37419   0.15115
C     1.56727  -0.69255   0.24054
O     1.26569  -1.90584   0.01982
N     2.84159  -0.30881   0.56178
C     3.93273  -1.24585   0.70260
C    -0.84884   0.14777  -0.15216
C    -1.52467  -0.97329   0.38249
C    -2.86444  -1.21234   0.08128
C    -3.57144  -0.34210  -0.75665
C    -2.91751   0.76961  -1.29626
C    -1.57599   1.01458  -0.99901
H     1.29806   3.56166   0.66179
H    -0.49358   2.96778   0.28291
H     3.01200   0.66747   0.77066
H     4.85251  -0.83054   0.26442
H     3.68123  -2.17594   0.17825
H     4.13886  -1.49384   1.75918
H    -0.98554  -1.65569   1.03844
H    -3.36479  -2.08314   0.51219
H    -4.62311  -0.52885  -0.98584
H    -3.45326   1.45216  -1.96051
H    -1.08492   1.87320  -1.45935
