41
Generated by autodE on: 2022-10-21. E = -3588.781325 Ha. Imaginary frequency = -99.0 cm-1
C     0.76512   4.05124   1.93780
N     0.24962   3.29686   0.81321
C    -0.84728   2.49865   0.98403
O    -1.54792   2.59090   2.01443
C    -1.12623   1.52257  -0.06674
C    -2.29926   0.64843  -0.09344
C    -3.53344   1.11634   0.41910
C    -4.66907   0.31007   0.41366
C    -4.61821  -0.98794  -0.10939
C    -3.41044  -1.46740  -0.62024
C    -2.26603  -0.66671  -0.60974
O    -0.27517   1.62849  -1.09883
C    -0.02983   0.89867  -2.12428
C     1.43879  -0.78927  -0.56405
Br    1.21399  -2.33376  -1.62828
C     2.72843   0.05495  -0.59240
C     3.72584  -0.57305   0.41415
C     3.19583  -0.33973   1.61909
C     1.88729   0.43706   1.33303
O     2.27972   1.18912   0.17370
C     0.92762  -0.59087   0.68033
O     0.04582  -1.35619   1.32354
C    -0.49868  -0.85952   2.55147
H    -0.00560   4.72216   2.34263
H     1.10911   3.39976   2.76188
H     1.61324   4.66069   1.59927
H     0.93586   2.96667   0.14094
H    -3.58979   2.12549   0.82351
H    -5.60767   0.70264   0.81283
H    -5.51112  -1.61732  -0.11597
H    -3.34675  -2.48174  -1.02165
H    -1.33523  -1.09853  -0.96668
H     0.75319   1.28486  -2.77723
H    -0.69064   0.08413  -2.41671
H     3.11065   0.34544  -1.57642
H     4.62830  -1.12057   0.14456
H     3.53613  -0.64768   2.60686
H     1.48938   1.07510   2.12718
H     0.27680  -0.81972   3.33242
H    -0.93915   0.13768   2.41217
H    -1.27940  -1.56986   2.84934
