40
Generated by autodE on: 2022-06-19. E = -915.440623 Ha
C    -1.40440  -2.60429   0.47121
C    -1.40240  -1.16155   0.87466
O    -1.21589  -0.80990   2.02194
C    -1.63592  -0.06203  -0.20776
C    -2.79717  -0.44280  -1.02702
N    -3.71905  -0.71054  -1.68046
N    -1.86781   1.23498   0.41622
C    -0.89675   2.22694  -0.12296
C    -1.50061   2.93078  -1.34575
C    -0.59288   3.27221   0.94629
C     0.32522   1.36520  -0.53438
C     1.24258   0.98594   0.63970
C     2.03847  -0.26369   0.36020
C     3.23791  -0.61740   1.13313
N     3.58083   0.22907   2.13801
O     3.92591  -1.63402   0.90514
C     1.62799  -1.14142  -0.59917
N     0.50815  -0.99838  -1.35296
C     0.21347  -1.89948  -2.45508
C    -0.35157   0.13756  -1.16027
H    -0.35660  -2.92881   0.36538
H    -1.85720  -3.19873   1.27724
H    -1.92171  -2.78878  -0.47742
H    -1.69445   1.10227   1.41463
H    -2.40586   3.48238  -1.05090
H    -1.78749   2.22442  -2.13883
H    -0.78108   3.64639  -1.77202
H    -0.22781   2.81658   1.87765
H    -1.50297   3.84400   1.18409
H     0.16868   3.97875   0.58443
H     0.92146   1.86738  -1.31013
H     0.64880   0.85461   1.55988
H     1.91398   1.83681   0.83234
H     3.01804   1.03081   2.39161
H     4.38434  -0.00165   2.71163
H     2.21514  -2.03941  -0.79997
H     0.45197  -1.43563  -3.42858
H    -0.85178  -2.17206  -2.46004
H     0.80525  -2.81775  -2.34764
H    -0.74913   0.41161  -2.14450
