20
Generated by autodE on: 2022-06-19. E = -457.715348 Ha
C    -3.12864   0.38214  -0.40914
N    -1.81787  -0.18333  -0.13392
C    -1.72451  -1.44241   0.47231
C    -0.55296  -1.98513   0.83933
C     0.77399  -1.29661   0.63612
C     0.57115   0.07424   0.01098
C     1.71180   0.96240  -0.26555
N     2.93385   0.48680   0.08324
O     1.59780   2.09028  -0.78760
C    -0.67057   0.52800  -0.32076
H    -3.67061   0.61965   0.52211
H    -3.73850  -0.32392  -0.99347
H    -3.01146   1.30520  -0.99067
H    -2.67823  -1.95154   0.62232
H    -0.56091  -2.97484   1.30166
H     1.43647  -1.92478   0.00542
H     1.31150  -1.21517   1.60289
H     3.74741   1.06785  -0.08641
H     3.06688  -0.41957   0.51299
H    -0.78942   1.51561  -0.76909
