41
Generated by autodE on: 2022-05-30. E = -1284.376825 Ha
C    -2.22718  -0.81175   3.69498
N    -1.99048  -0.55897   2.28706
C    -0.92821  -1.06374   1.64951
O    -0.05587  -1.73369   2.21380
C    -0.78360  -0.71877   0.13961
C    -2.12891  -0.87102  -0.59992
O    -3.16525  -0.33931  -0.16804
N    -2.06924  -1.55474  -1.74218
C    -3.19785  -1.68494  -2.63970
N     0.26240  -1.52596  -0.47930
C     1.55818  -0.85238  -0.32069
C     2.34971  -1.34785   0.88939
O     2.88329  -0.64703   1.72393
O     2.44361  -2.68025   0.87752
C     3.08369  -3.29361   2.00445
C     1.25102   0.64399  -0.23972
C     1.38038   1.38229  -1.60397
O     0.16451   0.99303  -2.26615
C    -0.73079   1.52027  -1.27581
C    -0.20561   2.94011  -1.13133
F    -0.94904   3.96093  -0.71670
C     1.10918   2.85548  -1.34136
F     2.06376   3.76940  -1.20071
C    -0.28407   0.75616   0.01298
H    -2.44215  -1.87592   3.88954
H    -1.34693  -0.53057   4.29203
H    -3.08510  -0.21308   4.02529
H    -2.72050  -0.16104   1.69314
H    -1.13092  -1.84056  -2.01913
H    -3.34886  -0.77028  -3.23778
H    -3.02240  -2.52579  -3.32262
H    -4.11546  -1.87405  -2.06588
H     0.28969  -2.45634  -0.06374
H     2.19997  -1.07541  -1.19078
H     4.11974  -2.93929   2.10275
H     2.52695  -3.06314   2.92447
H     3.06862  -4.37275   1.81295
H     1.86032   1.12511   0.53186
H     2.26965   1.14448  -2.19837
H    -1.78115   1.42903  -1.56869
H    -0.55170   1.33195   0.90449
