28
Generated by autodE on: 2022-07-27. E = -778.222142 Ha
C    -0.60240  -1.63565   2.63245
N    -0.41013  -1.35183   1.22313
C    -0.83288  -0.19433   0.68110
O    -1.59268   0.57417   1.29818
C    -0.46402   0.06160  -0.73094
N     0.69611  -0.27127  -1.31161
C     1.93092  -0.58747  -0.92138
C     2.51593  -0.38244   0.38916
O     3.60785  -0.83489   0.71191
O     1.79229   0.41850   1.18925
C     2.29392   0.65008   2.50915
C    -1.45737   0.52547  -1.72821
O    -1.17488   0.48218  -2.94353
N    -2.63560   0.97522  -1.26769
C    -3.65828   1.48175  -2.15821
H    -0.20037  -0.82433   3.25994
H    -1.66988  -1.75498   2.87465
H    -0.07904  -2.56753   2.87837
H     0.23322  -1.93982   0.70335
H     0.56126  -0.23423  -2.33960
H     2.60035  -0.92857  -1.70909
H     1.55312   1.28895   3.00347
H     3.26848   1.15865   2.47160
H     2.39894  -0.29998   3.05291
H    -2.72990   1.06466  -0.25675
H    -4.55245   1.72269  -1.57050
H    -3.92650   0.73238  -2.91865
H    -3.32688   2.39223  -2.68545
