41
Generated by autodE on: 2022-05-30. E = -1284.279494 Ha. Imaginary frequency = -291.5 cm-1
C    -1.41226  -2.99155   3.26271
N    -1.23020  -2.59554   1.88094
C    -1.32974  -1.31630   1.47232
O    -1.83777  -0.42004   2.16420
C    -0.96024  -1.08136   0.03837
C    -2.07823  -0.80490  -0.90934
O    -1.94901  -1.05903  -2.11936
N    -3.18469  -0.24509  -0.38969
C    -4.27420   0.20770  -1.23014
N     0.08480  -1.68233  -0.57913
C     1.38913  -1.71177  -0.26563
C     2.03226  -1.68445   1.04329
O     3.22821  -1.91395   1.18004
O     1.24228  -1.33498   2.06414
C     1.84779  -1.17957   3.34974
C     1.46033   0.77530  -0.04040
C     1.78084   1.15295  -1.50123
O     0.53603   0.79661  -2.13564
C    -0.29436   1.60651  -1.27936
C     0.39614   2.96699  -1.46608
F    -0.23586   4.13226  -1.35619
C     1.69114   2.68556  -1.61232
F     2.75122   3.48435  -1.69448
C     0.11896   1.04777   0.10583
H    -1.83412  -4.00514   3.30793
H    -0.45727  -2.98416   3.81482
H    -2.10494  -2.29556   3.75055
H    -0.72536  -3.23643   1.27657
H    -3.15381   0.02470   0.59145
H    -5.12736   0.47454  -0.59428
H    -4.58350  -0.58717  -1.92398
H    -3.99017   1.09058  -1.82821
H    -0.09861  -1.72653  -1.59050
H     2.04303  -2.03811  -1.07367
H     2.65794  -0.43670   3.30940
H     1.04841  -0.83152   4.01386
H     2.24910  -2.13859   3.70839
H     2.21563   0.75344   0.74154
H     2.64890   0.68524  -1.97799
H    -1.34986   1.57981  -1.56620
H    -0.41806   1.26274   1.02662
