20
Generated by autodE on: 2022-06-21. E = -457.715307 Ha
C     3.03043  -0.95762  -0.08471
N     1.82274  -0.15763   0.03682
C     1.92891   1.22544   0.23016
C     0.85749   2.02965   0.31606
C    -0.56153   1.52700   0.21358
C    -0.57685   0.02325  -0.00833
C    -1.84080  -0.71652  -0.15076
N    -2.97620   0.02246  -0.07416
O    -1.90014  -1.94980  -0.33310
C     0.57785  -0.69756  -0.08128
H     2.75741  -2.01557  -0.18471
H     3.61776  -0.66158  -0.96973
H     3.66783  -0.84326   0.80655
H     2.95097   1.60085   0.30675
H     1.02145   3.09866   0.47006
H    -1.12799   1.79841   1.12829
H    -1.09310   2.05394  -0.60522
H    -3.86937  -0.44921  -0.16395
H    -2.96995   1.02250   0.08046
H     0.53624  -1.77605  -0.24217
