24
Generated by autodE on: 2022-06-21. E = -800.441348 Ha
C     5.17307   0.46629  -0.38147
O     3.87674   0.18549   0.17792
C     2.83589   0.38254  -0.61903
O     2.86296   0.77280  -1.76719
C     1.57574   0.06269   0.07282
O     1.44138  -0.35947   1.29497
C     0.00934  -0.53630   1.56294
O    -0.36321  -0.92681   2.64805
C    -0.57719  -0.15537   0.33612
C    -1.95200  -0.08957  -0.09383
C    -2.28720   0.34866  -1.39257
C    -3.62164   0.40605  -1.78929
C    -4.64194   0.03071  -0.90725
C    -4.31518  -0.40467   0.38194
C    -2.98460  -0.46695   0.79229
O     0.43053   0.19687  -0.52501
H     5.35474  -0.17576  -1.25488
H     5.23537   1.52283  -0.67813
H     5.89394   0.24726   0.41339
H    -1.49697   0.64314  -2.08505
H    -3.86814   0.74726  -2.79741
H    -5.68627   0.07771  -1.22350
H    -5.10509  -0.69964   1.07650
H    -2.73425  -0.80675   1.79773
