44
Generated by autodE on: 2022-06-21. E = -1258.152772 Ha. Imaginary frequency = -432.3 cm-1
C    -2.08604   4.18808   1.20236
O    -1.30977   3.02330   0.87259
C    -1.30346   2.03881   1.76438
O    -1.88761   2.03958   2.82853
C    -0.54825   0.86916   1.26155
O    -0.04949   0.01221   2.20080
C     1.01527  -0.67065   1.61573
O     1.58663  -1.57898   2.17664
C     1.16704  -0.04142   0.31717
C     2.18183  -0.23329  -0.68698
C     3.03014  -1.35995  -0.62854
C     3.96111  -1.58056  -1.64140
C     4.06252  -0.68917  -2.71581
C     3.22450   0.43044  -2.77626
C     2.28538   0.66037  -1.77347
O     0.40976   1.07867   0.32195
C    -0.87551  -1.25928  -0.39137
C    -0.68399  -2.50325   0.39205
N     0.10770  -3.44626  -0.17183
O    -1.22323  -2.68550   1.49583
C    -0.55160  -1.26860  -1.87432
C    -0.97156   0.01288  -2.54561
C    -1.89725   0.81502  -1.99467
N    -2.45822   0.56450  -0.74489
C    -3.63581   1.30095  -0.31757
C    -1.82355  -0.32340   0.11628
H    -1.68553   4.66569   2.10752
H    -3.13723   3.91140   1.36343
H    -1.99461   4.86066   0.34269
H     2.94637  -2.05445   0.20623
H     4.61337  -2.45515  -1.59254
H     4.79476  -0.86704  -3.50651
H     3.30141   1.12703  -3.61391
H     1.62405   1.52549  -1.82441
H     0.68601  -3.24490  -0.97946
H     0.33785  -4.26349   0.38440
H    -1.06798  -2.13400  -2.33992
H     0.52024  -1.45893  -2.05135
H    -0.54346   0.26951  -3.51547
H    -2.26236   1.71848  -2.48891
H    -3.56742   2.35335  -0.62873
H    -3.72567   1.26614   0.77572
H    -4.55935   0.87429  -0.74716
H    -2.41009  -0.63849   0.98085
