30
Generated by autodE on: 2022-06-16. E = -634.676963 Ha
C    -3.39686  -0.29448   1.14376
C    -2.50589  -0.02573  -0.06653
C    -1.87520   1.38052   0.01156
C    -1.56604   1.92617  -1.32744
N    -1.30097   2.35220  -2.37417
O    -0.67253   1.24322   0.75735
C    -0.27163  -0.14305   0.81438
C     1.18767  -0.30085   0.46967
C     1.77853   0.46267  -0.54860
C     3.11638   0.26199  -0.89626
C     3.87930  -0.70741  -0.23490
C     3.29672  -1.47168   0.78023
C     1.95946  -1.26452   1.13313
C    -1.22738  -0.88823  -0.13940
C    -1.37913  -2.36826   0.17500
H    -4.24156   0.41122   1.16110
H    -3.81010  -1.31277   1.10682
H    -2.84490  -0.18344   2.09011
H    -3.09620  -0.13190  -0.98871
H    -2.53237   2.10523   0.51732
H    -0.43552  -0.49917   1.84577
H     1.18729   1.21861  -1.06929
H     3.56707   0.86533  -1.68819
H     4.92582  -0.86278  -0.50800
H     3.88652  -2.22690   1.30545
H     1.50708  -1.85429   1.93460
H    -0.82037  -0.78319  -1.15916
H    -0.41467  -2.88655   0.05744
H    -2.10130  -2.84266  -0.50734
H    -1.72244  -2.53154   1.20780
