18
Generated by autodE on: 2022-07-27. E = -477.257673 Ha
N    -0.88863   0.61731  -2.67911
C    -1.61844   0.67752  -1.75851
C    -2.48846   0.74623  -0.67909
O    -2.31218   0.01500   0.44768
C    -1.28954  -0.54709   1.00229
C     0.11053  -0.37964   0.72251
C     0.68206   0.76102   0.10499
C     2.06681   0.87687   0.00024
C     2.90538  -0.13678   0.47530
C     2.35370  -1.26593   1.09647
C     0.97610  -1.37998   1.23462
H    -3.51196   1.09909  -0.78504
H    -1.59172  -1.19414   1.82979
H     0.05379   1.57647  -0.24611
H     2.49557   1.76840  -0.46251
H     3.98868  -0.04416   0.37051
H     3.00535  -2.05397   1.48008
H     0.54373  -2.24916   1.73557
