30
Generated by autodE on: 2022-06-16. E = -634.556454 Ha. Imaginary frequency = -324.9 cm-1
C    -3.80155  -0.41278   0.17435
C    -2.45387  -0.68202  -0.43231
C    -1.47496   1.63710   0.17555
C    -0.92628   1.73791  -1.10733
N    -0.55719   1.81312  -2.21866
O    -0.89830   1.03780   1.22810
C    -0.04120   0.04191   1.26062
C     1.18913  -0.05013   0.48275
C     1.80399   1.06449  -0.12304
C     3.03022   0.92535  -0.77570
C     3.66344  -0.31898  -0.83877
C     3.07287  -1.42819  -0.21837
C     1.85611  -1.29487   0.44391
C    -1.52171  -1.51373   0.13570
C    -1.79329  -2.34191   1.36611
H    -4.30867   0.42983  -0.31694
H    -4.45851  -1.29849   0.08258
H    -3.72692  -0.18861   1.25054
H    -2.29737  -0.36875  -1.46649
H    -2.29100   2.29719   0.46523
H    -0.06253  -0.46068   2.23009
H     1.34660   2.05081  -0.05366
H     3.49563   1.80092  -1.23426
H     4.61850  -0.42408  -1.35838
H     3.56847  -2.40126  -0.24968
H     1.40221  -2.15894   0.93433
H    -0.68163  -1.82456  -0.48986
H    -0.86801  -2.76374   1.78535
H    -2.46102  -3.18948   1.12471
H    -2.29036  -1.76024   2.15786
