35
Generated by autodE on: 2022-06-20. E = -808.219789 Ha
C     3.00696  -1.09498   2.09173
C     3.23623   0.10117   1.18655
O     4.34057   0.69277   1.19188
C     2.16271   0.54130   0.35454
C     2.27511   1.65317  -0.61785
O     1.06411  -0.23634   0.43679
C    -0.14240  -0.14290  -0.05810
C    -0.72419   1.13073  -0.48890
C    -1.50119   1.21051  -1.66264
C    -2.10636   2.41131  -2.02700
C    -1.96396   3.54641  -1.21928
C    -1.20700   3.47445  -0.04599
C    -0.58367   2.28004   0.31593
C    -0.88375  -1.39629  -0.03544
C    -2.29591  -1.41823  -0.09502
C    -2.98684  -2.62725  -0.05508
C    -2.29203  -3.83797   0.04861
C    -0.89326  -3.83017   0.11189
C    -0.19354  -2.62731   0.06587
H     2.60417  -1.95730   1.53827
H     3.96276  -1.37119   2.55680
H     2.27997  -0.85463   2.88450
H     3.34324   1.87597  -0.74392
H     1.84220   1.37150  -1.59279
H     1.76881   2.58452  -0.30588
H    -1.61078   0.32885  -2.29619
H    -2.69174   2.46421  -2.94767
H    -2.44384   4.48530  -1.50465
H    -1.10039   4.35375   0.59311
H    -0.00684   2.22509   1.24103
H    -2.85251  -0.48245  -0.14909
H    -4.07847  -2.62457  -0.09536
H    -2.83809  -4.78352   0.07814
H    -0.34371  -4.77144   0.18535
H     0.89672  -2.62953   0.08934
