47
Generated by autodE on: 2022-06-20. E = -965.501439 Ha. Imaginary frequency = -313.3 cm-1
C    -3.96271   1.65052  -0.37608
C    -2.56504   1.18932  -0.73337
O    -1.80584   1.94282  -1.36331
C    -2.18822  -0.14953  -0.33802
C    -3.19807  -1.25858  -0.28316
O    -0.95201  -0.62026  -0.57685
C     0.28764  -0.25264  -0.27848
C     1.20423  -1.39845  -0.21205
C     2.53778  -1.22327   0.21810
C     3.38980  -2.31637   0.36674
C     2.93723  -3.61130   0.08867
C     1.61702  -3.79900  -0.33548
C     0.75875  -2.70993  -0.48071
C     0.85113   1.09660  -0.58491
C     0.50582   2.28325   0.08447
C     1.09770   3.49940  -0.26102
C     2.03742   3.56292  -1.29306
C     2.38400   2.39449  -1.97825
C     1.80504   1.17637  -1.62037
C    -0.32255  -0.06993   2.11003
C     0.01655  -1.43807   2.63180
C    -1.62038   0.38662   2.05053
C    -2.77496  -0.35969   2.65756
H    -4.01050   2.74194  -0.49116
H    -4.69542   1.19646  -1.06452
H    -4.25318   1.37009   0.64655
H    -4.12560  -0.92790   0.19900
H    -3.46468  -1.61151  -1.29677
H    -2.80447  -2.11505   0.28136
H     2.90030  -0.22384   0.46060
H     4.41534  -2.15626   0.70804
H     3.60717  -4.46643   0.20346
H     1.25180  -4.80490  -0.55665
H    -0.26796  -2.86741  -0.81136
H    -0.23151   2.26801   0.88185
H     0.81527   4.40540   0.28023
H     2.49648   4.51702  -1.56277
H     3.10863   2.42893  -2.79530
H     2.08487   0.27133  -2.16195
H     0.49016   0.65453   2.05914
H    -0.53197  -2.22963   2.09513
H    -0.25287  -1.53321   3.69972
H     1.08885  -1.65475   2.53938
H    -1.78196   1.45529   1.88119
H    -2.72477  -1.44234   2.47622
H    -2.76763  -0.22105   3.75535
H    -3.74540   0.00598   2.29506
