14
Generated by autodE on: 2022-05-26. E = -416.141449 Ha
C     2.70150   0.04752   0.13333
O     1.32274   0.41012  -0.00520
C     0.42300  -0.58216   0.12944
O     0.72568  -1.74368   0.35881
C    -0.95511  -0.14177  -0.02408
C    -2.10461  -1.10291   0.09262
N    -1.17151   1.12472  -0.26896
N    -1.36521   2.22288  -0.48144
H     2.89549  -0.37122   1.13184
H     3.27231   0.97361  -0.00325
H     2.98900  -0.68864  -0.63182
H    -2.01707  -1.90147  -0.66123
H    -3.06219  -0.58668  -0.05686
H    -2.11363  -1.57448   1.08821
