12
Generated by autodE on: 2022-06-22. E = -381.636094 Ha
O    -0.32255   2.64701  -0.00355
C    -0.17412   1.42927  -0.00162
C    -1.34005   0.51394  -0.04629
C    -1.17761  -0.82061  -0.04574
C     0.17412  -1.42927   0.00152
O     0.32255  -2.64701   0.00361
C     1.34005  -0.51394   0.04630
C     1.17761   0.82061   0.04575
H    -2.32534   0.98486  -0.07913
H    -2.02128  -1.51411  -0.07781
H     2.32534  -0.98486   0.07920
H     2.02128   1.51411   0.07789
