41
Generated by autodE on: 2022-06-22. E = -1222.618348 Ha. Imaginary frequency = -270.2 cm-1
C    -3.50511  -1.15227  -2.37258
O    -2.95170  -0.86982  -1.07841
C    -1.64432  -1.07855  -0.93065
O    -0.93313  -1.51886  -1.82256
C    -1.12670  -0.69204   0.39375
C    -1.95778  -0.60837   1.60895
O    -3.16834  -0.48291   1.61687
O    -1.21206  -0.61817   2.72458
C    -1.92071  -0.46883   3.96230
O     0.17522  -0.94723   0.65666
C     1.17245  -0.70152  -0.15871
C     2.50907  -0.78806   0.37563
C     3.59117  -0.74857  -0.52660
C     4.89851  -0.78125  -0.04495
C     5.13406  -0.85860   1.33192
C     4.05980  -0.89915   2.23345
C     2.75161  -0.85953   1.76401
C     0.65650   1.58616  -0.27233
C     0.96933   1.74178  -1.69796
O     2.12665   1.81866  -2.11543
C    -0.17740   1.80271  -2.64305
C    -1.45056   1.88492  -2.21430
C    -1.77571   1.88960  -0.76894
O    -2.91306   2.12348  -0.36843
C    -0.66215   1.60986   0.16339
H    -3.41351  -2.22284  -2.60484
H    -4.56075  -0.86497  -2.31193
H    -2.99217  -0.56334  -3.14586
H    -2.45916   0.48969   3.98437
H    -1.15826  -0.49375   4.74929
H    -2.63614  -1.29236   4.10044
H     0.99906  -0.78338  -1.22903
H     3.39288  -0.68749  -1.59817
H     5.73732  -0.75000  -0.74334
H     6.15933  -0.88739   1.70774
H     4.25102  -0.95817   3.30703
H     1.90788  -0.87946   2.45573
H     1.47425   1.73273   0.43241
H     0.07773   1.81921  -3.70548
H    -2.29369   1.97440  -2.90322
H    -0.88527   1.75658   1.22102
