45
Generated by autodE on: 2022-06-22. E = -1217.455177 Ha
C     3.95380  -1.90327   1.06163
N     2.67337  -1.48411   0.52747
C     2.54702  -0.62232  -0.48069
O     3.46490  -0.10237  -1.11877
C     1.07746  -0.25047  -0.81330
C     1.01802   0.07677  -2.25284
N     0.95077   0.30425  -3.38729
O     0.21099  -1.32482  -0.52015
C    -0.95962  -0.93754   0.20252
C    -2.19661  -1.54238  -0.50105
C    -1.94722  -2.57136  -1.55712
O    -3.30602  -1.17977  -0.16244
C    -0.84923  -1.57225   1.63212
C    -2.08713  -1.74822   2.45925
O     0.22419  -2.02051   1.98790
C    -0.96824   0.63090   0.17957
C    -1.44781   1.23632   1.51341
N    -2.43925   2.13129   1.48270
O    -0.89455   0.89260   2.56275
C    -1.69674   1.16921  -1.07309
C    -1.20736   2.53482  -1.45516
C     0.00948   2.97226  -1.07895
N     0.87772   2.26415  -0.26712
C     2.24462   2.72565  -0.08750
C     0.55940   0.91960   0.09927
H     4.08639  -2.99084   0.95171
H     4.02563  -1.65205   2.13098
H     4.75829  -1.39133   0.52050
H     1.81169  -1.80592   0.98251
H    -1.31357  -3.37790  -1.15603
H    -2.90475  -2.97112  -1.91374
H    -1.38836  -2.11711  -2.39055
H    -1.80920  -1.75986   3.52062
H    -2.85940  -0.99876   2.26010
H    -2.50891  -2.73545   2.20050
H    -2.83523   2.48297   0.61903
H    -2.71999   2.56914   2.35568
H    -1.55103   0.46206  -1.90810
H    -2.78131   1.15858  -0.90051
H    -1.84343   3.17828  -2.06419
H     0.37417   3.96050  -1.36878
H     2.90389   2.44296  -0.92487
H     2.25339   3.82077   0.01252
H     2.65979   2.29270   0.83421
H     0.98749   0.71343   1.08928
