25
Generated by autodE on: 2022-06-22. E = -759.657136 Ha
C     2.36653  -2.72694   1.95572
N     2.14606  -1.39941   1.41420
C     1.21842  -1.13168   0.48657
O     0.46414  -1.94941  -0.04033
C     1.20590   0.27960  -0.02849
C     2.41534   0.97906  -0.26992
N     3.42714   1.54111  -0.41160
O     0.16831   0.80168  -0.60975
C    -1.13000   0.52126  -0.47614
C    -1.61551  -0.00656   0.80041
C    -3.08813  -0.21691   1.00337
O    -0.81280  -0.19714   1.71791
C    -1.93679   1.12010  -1.54935
C    -1.20297   1.89698  -2.61369
O    -3.15492   0.96179  -1.58863
H     1.71132  -3.43654   1.43832
H     2.13984  -2.74782   3.03274
H     3.41383  -3.03231   1.81184
H     2.69682  -0.63104   1.78943
H    -3.65019   0.71231   0.83327
H    -3.46525  -0.95377   0.27811
H    -3.24661  -0.57783   2.02787
H    -1.93726   2.32176  -3.30942
H    -0.51132   1.23778  -3.16197
H    -0.59787   2.70028  -2.16550
