45
Generated by autodE on: 2022-06-22. E = -1217.385080 Ha. Imaginary frequency = -198.6 cm-1
C     3.36893  -1.59257   2.27731
N     2.36893  -1.66350   1.23242
C     2.50413  -0.95355   0.09384
O     3.55471  -0.39712  -0.26873
C     1.28067  -0.83014  -0.72374
C     1.39633  -0.40910  -2.06145
N     1.49112   0.01568  -3.14507
O     0.20039  -1.45465  -0.24894
C    -1.07435  -1.11938  -0.03697
C    -2.01416  -0.94318  -1.16865
C    -1.55131  -1.25205  -2.56764
O    -3.17329  -0.59846  -0.95109
C    -1.52456  -1.66929   1.28173
C    -2.97384  -1.63400   1.66851
O    -0.68127  -2.15565   2.03096
C    -0.62381   1.25934   0.57040
C    -0.39441   0.91106   2.00553
N    -1.45759   1.02905   2.82661
O     0.71906   0.56760   2.42343
C    -1.91309   1.90921   0.12714
C    -1.85235   2.28945  -1.32723
C    -0.68250   2.48260  -1.95135
N     0.53999   2.27853  -1.28633
C     1.76782   2.85785  -1.82651
C     0.55650   1.60372  -0.12395
H     3.23773  -2.43696   2.96679
H     3.28774  -0.65376   2.85279
H     4.37545  -1.64448   1.84193
H     1.41190  -1.88951   1.50996
H    -0.78859  -2.04153  -2.59428
H    -2.43016  -1.55222  -3.15400
H    -1.12890  -0.34604  -3.02496
H    -3.06550  -2.00298   2.69802
H    -3.39558  -0.62514   1.58401
H    -3.55427  -2.27697   0.98830
H    -2.38731   1.24309   2.48705
H    -1.35098   0.75097   3.79704
H    -2.77779   1.25336   0.30823
H    -2.09499   2.81414   0.74523
H    -2.78306   2.44130  -1.87551
H    -0.59564   2.80167  -2.99058
H     2.63084   2.28791  -1.46186
H     1.74821   2.81041  -2.92180
H     1.86725   3.91018  -1.51339
H     1.51617   1.51748   0.37999
