43
Generated by autodE on: 2022-05-31. E = -1836.820052 Ha
C    -0.73676   3.92082   0.06215
N    -0.52972   2.53648   0.43923
C     0.64439   2.09552   0.92910
O     1.55631   2.86115   1.25453
C     0.75670   0.57175   1.15741
C     2.22249   0.06792   1.22801
C     2.80549  -0.60551  -0.01582
C     3.06839   0.29479  -1.22440
C     1.89659   1.11205  -1.78060
C     0.63954   0.34496  -2.15895
Cl    1.05305  -0.84979  -3.48472
Cl   -0.51025   1.61925  -2.98761
C    -0.15314  -0.32428  -1.12167
C    -0.13358  -0.21853   0.24024
N    -1.26067  -0.86904   0.74344
C    -1.40064  -1.45636   2.02282
C    -2.66421  -1.43993   2.63340
C    -2.84420  -2.04488   3.87688
C    -1.76570  -2.65928   4.52557
C    -0.50989  -2.68395   3.91286
C    -0.32695  -2.10081   2.65587
N    -1.82149  -1.66722  -0.34654
N    -1.35680  -1.02697  -1.52041
H    -1.81340   4.11054  -0.03635
H    -0.25020   4.15455  -0.90007
H    -0.32642   4.58874   0.83112
H    -1.18581   1.85208   0.07833
H     0.34290   0.45849   2.17161
H     2.84290   0.92696   1.52189
H     2.27929  -0.65438   2.05459
H     3.77087  -1.04990   0.27711
H     2.16711  -1.45287  -0.31192
H     3.85159   1.02600  -0.96361
H     3.47868  -0.32445  -2.03728
H     1.61442   1.91133  -1.08644
H     2.23341   1.62601  -2.69139
H    -3.49350  -0.94441   2.12560
H    -3.82920  -2.02671   4.34894
H    -1.90704  -3.12151   5.50510
H     0.33264  -3.17364   4.40661
H     0.64332  -2.15423   2.16123
H    -1.30057  -2.55526  -0.29231
H    -2.05737  -0.33128  -1.80431
