27
Generated by autodE on: 2022-05-31. E = -1439.527057 Ha
C     1.43632  -1.49434  -3.76929
N     1.29684  -1.24660  -2.34701
C     2.34365  -0.89841  -1.58449
O     3.48821  -0.77378  -2.03155
C     2.08432  -0.63616  -0.09191
C     0.71909  -0.87754   0.34364
C    -0.43381  -0.66109   0.65375
C    -1.55298   0.20477   0.94282
Cl   -1.78392   0.30580   2.75740
Cl   -3.10257  -0.43289   0.22340
C    -1.26141   1.60459   0.37396
C     0.12031   2.19312   0.72552
C     1.32226   1.87875  -0.21028
C     2.37971   0.85609   0.25530
H     1.73859  -0.58214  -4.30873
H     0.47326  -1.83705  -4.16646
H     2.19564  -2.26822  -3.95958
H     0.37495  -1.29076  -1.92411
H     2.80752  -1.27244   0.44194
H    -2.06351   2.26809   0.72963
H    -1.36452   1.52340  -0.71952
H    -0.02063   3.28437   0.71356
H     0.37273   1.94318   1.76923
H     0.95132   1.60254  -1.21216
H     1.86488   2.82565  -0.35356
H     3.35063   1.09294  -0.20522
H     2.51531   0.93107   1.34532
