26
Generated by autodE on: 2022-06-17. E = -967.975867 Ha
C     3.45185  -1.12378  -0.53325
C     2.45389  -0.26173  -1.22501
O     2.57679   0.21355  -2.33284
C     1.14979   0.05931  -0.48393
O     1.14866  -0.41751   0.88691
C     0.29008   0.38524   1.56088
O    -0.00031   0.28203   2.71401
C    -0.21729   1.35941   0.46927
C    -0.69433   2.64198   0.94614
N    -1.08072   3.65977   1.34056
O     0.95715   1.45076  -0.34228
C    -1.18632   0.52555  -0.44452
C    -2.33287  -0.11730   0.31233
O    -3.04924   0.56388   1.02739
C    -2.54644  -1.56869   0.15774
C    -1.66391  -2.38144  -0.45790
C    -0.39763  -1.90029  -1.04179
O     0.45733  -2.67528  -1.44071
C    -0.17093  -0.40653  -1.14434
H     4.32615  -1.27426  -1.17816
H     3.74731  -0.65677   0.42027
H     2.98374  -2.09037  -0.28537
H    -1.63036   1.22270  -1.16892
H    -3.45133  -1.96470   0.62537
H    -1.82801  -3.46075  -0.50948
H    -0.09776  -0.16088  -2.21319
