26
Generated by autodE on: 2022-06-17. E = -967.919956 Ha. Imaginary frequency = -369.4 cm-1
C     3.24294  -1.46655  -0.57020
C     2.54557  -0.22885  -1.02039
O     2.84588   0.45956  -1.97226
C     1.33812   0.19138  -0.21705
O     1.04118  -0.38001   0.96176
C     0.12634   0.45724   1.64092
O    -0.39044   0.15611   2.67907
C     0.01614   1.58392   0.73379
C    -0.61048   2.82186   0.97660
N    -1.16563   3.82234   1.18630
O     1.00218   1.48154  -0.19889
C    -1.37467   0.35923  -0.75065
C    -2.33546  -0.27768   0.18546
O    -3.22967   0.36982   0.71712
C    -2.16487  -1.72542   0.44749
C    -1.24877  -2.46097  -0.21067
C    -0.36150  -1.86808  -1.23903
O     0.37065  -2.56983  -1.92673
C    -0.38866  -0.38805  -1.40200
H     4.08395  -1.67908  -1.24112
H     3.59716  -1.33612   0.46545
H     2.53288  -2.30943  -0.56662
H    -1.66317   1.34274  -1.12426
H    -2.83117  -2.16133   1.19545
H    -1.12781  -3.53182  -0.03110
H     0.05890  -0.00593  -2.32194
