51
Generated by autodE on: 2022-10-21. E = -1354.781743 Ha
C    -3.78558  -2.61826   2.25425
O    -3.26922  -1.93765   1.09913
C    -2.36947  -0.98764   1.31407
O    -2.00792  -0.62983   2.41547
C    -1.85182  -0.35070   0.00465
C    -2.73745   0.85581  -0.25906
C    -2.55480   2.02725   0.49255
C    -3.38040   3.13317   0.28624
C    -4.40237   3.07957  -0.66788
C    -4.59746   1.91043  -1.40696
C    -3.77447   0.79891  -1.19949
N    -1.91666  -1.33881  -1.08673
N    -0.76844  -2.15746  -0.87105
C    -1.01672  -3.37121  -0.38055
N    -1.20005  -4.45884   0.00436
C     0.35266  -1.35838  -0.31016
C     1.28239  -0.81471  -1.42528
O     0.43426   0.18963  -2.01372
C     0.26973   0.97380  -0.82886
C     1.72085   1.14803  -0.38297
O     2.17774   2.14188   0.38860
C     1.34234   3.28971   0.57632
C     2.37407   0.01405  -0.75177
C     3.71156  -0.46868  -0.43490
C     4.69425   0.37645   0.12957
C     5.96653  -0.10819   0.42991
C     6.29628  -1.44627   0.18261
C     5.33419  -2.29559  -0.37223
C     4.05977  -1.81538  -0.67901
C    -0.33986  -0.04961   0.18106
H    -2.96973  -3.13141   2.78278
H    -4.27751  -1.90613   2.93154
H    -4.50929  -3.34751   1.87351
H    -1.76359   2.07565   1.24278
H    -3.22360   4.04106   0.87306
H    -5.04674   3.94649  -0.83097
H    -5.39804   1.85655  -2.14829
H    -3.94630  -0.11409  -1.77019
H    -1.74495  -0.84416  -1.96464
H     0.88258  -1.93430   0.45547
H     1.59006  -1.55600  -2.16962
H    -0.31940   1.87283  -1.02383
H     1.90155   3.97113   1.22882
H     1.13627   3.78736  -0.38377
H     0.39520   3.01317   1.06392
H     4.45246   1.42043   0.32728
H     6.70995   0.56637   0.86224
H     7.29384  -1.82236   0.42108
H     5.57590  -3.34317  -0.56839
H     3.32342  -2.49820  -1.10679
H    -0.10602   0.21481   1.21585
