24
Generated by autodE on: 2022-10-21. E = -701.448701 Ha
C     3.01538  -2.59648   0.01517
O     1.86062  -1.74078   0.05400
C     1.97961  -0.55093  -0.51653
O     2.98525  -0.14741  -1.07651
C     0.73348   0.25957  -0.42208
N     0.85390   1.41490  -1.04610
N     0.09021   2.48078  -1.17992
C    -1.01996   2.59788  -0.48027
N    -2.01487   2.89653   0.06834
C    -0.49683  -0.21612   0.22434
C    -1.69303  -0.29095  -0.51228
C    -2.85680  -0.76687   0.09201
C    -2.83910  -1.16539   1.43162
C    -1.65002  -1.09792   2.16706
C    -0.48068  -0.63332   1.56729
H     3.28107  -2.82630  -1.02637
H     2.72814  -3.50954   0.54795
H     3.86508  -2.11038   0.51493
H     1.76008   1.51707  -1.52670
H    -1.70499   0.01491  -1.56021
H    -3.78113  -0.82522  -0.48662
H    -3.75274  -1.53329   1.90413
H    -1.63457  -1.40935   3.21374
H     0.44849  -0.58086   2.13691
