27
Generated by autodE on: 2022-10-21. E = -653.259900 Ha
C    -2.86545  -1.25485   1.77249
O    -1.52542  -1.00823   1.33908
C    -1.33854  -0.30821   0.21207
C    -0.16401   0.00605  -0.39101
C     1.21342  -0.27471  -0.02419
C     2.28057   0.39337  -0.66640
C     3.60723   0.13746  -0.31494
C     3.91007  -0.79294   0.68399
C     2.86456  -1.46434   1.33035
C     1.53780  -1.21163   0.98617
C    -0.61336   0.96319  -1.52609
C    -1.10461   2.27627  -0.87380
C    -2.24909   1.95183  -0.26459
C    -2.44120   0.44773  -0.57320
O    -1.87894   0.37127  -1.88994
H    -2.78509  -1.81868   2.71003
H    -3.40145  -0.31162   1.96075
H    -3.41565  -1.85548   1.03144
H     2.07103   1.12768  -1.44641
H     4.41151   0.67164  -0.82724
H     4.94869  -0.99351   0.95696
H     3.08620  -2.19495   2.11265
H     0.73572  -1.74326   1.49793
H     0.05327   1.05113  -2.39008
H    -0.56263   3.22152  -0.88030
H    -2.90365   2.55053   0.36765
H    -3.45888   0.04799  -0.53017
