47
Generated by autodE on: 2022-06-22. E = -1123.552545 Ha
C     1.69590  -1.11372   2.80591
N     1.71784  -0.59214   1.45755
C     1.49707  -1.34620   0.36874
O     1.47927  -2.58322   0.37636
C     1.26257  -0.56075  -0.94376
C     2.14440  -1.15567  -2.04632
C    -0.25504  -0.60886  -1.37062
C    -0.87131   0.66247  -0.76774
C    -1.27046   0.51969   0.71161
C    -1.78792  -0.86047   1.02527
C    -2.42992  -1.16022   2.31205
N    -2.45815  -0.15160   3.22261
O    -2.92189  -2.27248   2.59170
C    -1.63318  -1.88799   0.14195
N    -1.01241  -1.79692  -1.05997
C    -0.81323  -2.98740  -1.87166
C     0.29984   1.66867  -0.99298
C     0.27821   2.14980  -2.39715
N     0.33858   2.48492  -3.50732
C     0.16173   2.87865  -0.02091
C    -0.80593   3.95451  -0.40501
O     0.80157   2.88780   1.00891
N     1.48045   0.88028  -0.72674
C     2.77220   1.46772  -1.02702
H     1.91524  -2.18863   2.78377
H     2.44983  -0.60823   3.42628
H     0.70507  -0.96741   3.27039
H     1.64711   0.41293   1.29943
H     2.00636  -0.59327  -2.98094
H     3.20812  -1.12890  -1.77118
H     1.87006  -2.20176  -2.22766
H    -0.25548  -0.49932  -2.46454
H    -1.74741   0.96381  -1.35502
H    -2.04050   1.27841   0.92802
H    -0.42557   0.76200   1.37106
H    -2.87570  -0.32942   4.12918
H    -2.04135   0.75448   3.05130
H    -2.04004  -2.87001   0.39068
H    -0.71869  -2.70071  -2.92873
H    -1.68239  -3.65158  -1.76958
H     0.09064  -3.54170  -1.57314
H    -1.05310   4.56506   0.47256
H    -1.71584   3.53074  -0.85637
H    -0.33359   4.59581  -1.16859
H     3.56733   0.87137  -0.55877
H     2.98318   1.53999  -2.11046
H     2.82233   2.47856  -0.59880
