20
Generated by autodE on: 2022-06-22. E = -457.715326 Ha
C    -3.04507  -0.60720   0.67906
N    -1.78618   0.06219   0.39571
C    -1.77159   1.44882   0.19930
C    -0.65766   2.12261  -0.12799
C     0.68297   1.45682  -0.31807
C     0.56495  -0.04404  -0.10855
C     1.73157  -0.92976  -0.24969
N     2.90222  -0.32660  -0.57692
O     1.68145  -2.16588  -0.08484
C    -0.62313  -0.62545   0.22083
H    -2.85309  -1.66633   0.89165
H    -3.73801  -0.54036  -0.17652
H    -3.53550  -0.15763   1.55662
H    -2.73588   1.94201   0.33508
H    -0.72498   3.20489  -0.26031
H     1.42806   1.89627   0.37673
H     1.08023   1.68600  -1.32813
H     3.72996  -0.90186  -0.68743
H     2.98385   0.67185  -0.72040
H    -0.68002  -1.70562   0.36380
