27
Generated by autodE on: 2022-06-22. E = -665.785948 Ha
C    -3.21935   1.63064   1.03992
N    -2.45793   0.39599   1.05974
C    -1.58548   0.11585   0.07747
O    -1.51427   0.75962  -0.97075
C    -0.76979  -1.14726   0.25845
C    -1.43399  -2.37612   0.78252
N     0.46023  -1.19938  -0.19316
C     1.13833  -2.50702  -0.28513
C     1.24815  -0.04684  -0.44220
C     2.16841  -0.10150  -1.50261
N     2.93633  -0.12417  -2.38712
C     1.20122   1.06923   0.45467
C     2.15928   2.21131   0.19103
O     0.41179   1.12495   1.41681
H    -3.77404   1.72343   0.09578
H    -3.93201   1.62352   1.87352
H    -2.55804   2.50800   1.13907
H    -2.35352  -0.08841   1.94612
H    -2.39351  -2.13486   1.25181
H    -0.79491  -2.90007   1.50907
H    -1.63643  -3.07853  -0.04493
H     2.05534  -2.38963  -0.86962
H     1.39690  -2.85483   0.72494
H     0.48469  -3.23912  -0.77216
H     1.79335   2.79955  -0.66738
H     3.17460   1.86713  -0.05243
H     2.18879   2.86281   1.07434
