47
Generated by autodE on: 2022-06-22. E = -1123.463969 Ha. Imaginary frequency = -411.6 cm-1
C     1.76462  -2.54088   2.00055
N     1.48046  -1.46435   1.07448
C     2.02294  -1.41811  -0.15480
O     2.88195  -2.23134  -0.52451
C     1.45627  -0.37762  -1.10238
C     1.80198  -0.68493  -2.54051
C    -0.73295  -0.76141  -1.26733
C    -1.30454   0.46378  -0.86551
C    -1.71809   0.67049   0.56544
C    -1.87788  -0.63859   1.31341
C    -2.39698  -0.67903   2.68618
N    -2.74221   0.51319   3.23515
O    -2.51301  -1.73481   3.34302
C    -1.50995  -1.81997   0.74112
N    -0.97861  -1.92597  -0.50170
C    -0.53059  -3.20470  -1.02580
C     0.57796   1.86180  -1.15452
C     0.40220   1.99054  -2.56589
N     0.19163   2.15764  -3.70076
C     0.09581   3.00432  -0.36313
C    -0.72555   4.04460  -1.08571
O     0.26982   3.07861   0.85539
N     1.46818   0.92816  -0.63622
C     2.32094   1.30339   0.51412
H     1.62712  -3.51984   1.51397
H     2.79859  -2.49076   2.37848
H     1.07128  -2.46370   2.84742
H     0.72480  -0.82898   1.30778
H     1.27879  -0.05081  -3.25901
H     2.88813  -0.54127  -2.67894
H     1.57030  -1.73230  -2.77046
H    -0.68748  -0.96777  -2.33762
H    -1.76583   1.08527  -1.63046
H    -2.65238   1.25893   0.58083
H    -0.97952   1.30898   1.09026
H    -3.08011   0.52709   4.19103
H    -2.63950   1.39259   2.74515
H    -1.62961  -2.75502   1.28960
H    -0.90623  -3.34786  -2.05123
H    -0.92016  -4.01123  -0.39255
H     0.56704  -3.27762  -1.05234
H    -1.10439   4.76593  -0.35096
H    -1.57240   3.57929  -1.61415
H    -0.11895   4.56959  -1.84022
H     3.22288   0.68093   0.48929
H     2.62907   2.34671   0.39140
H     1.82276   1.19818   1.48292
