43
Generated by autodE on: 2022-06-22. E = -1216.117461 Ha
C     3.45552   1.75558  -1.99404
O     2.86748   0.44934  -1.85774
C     1.91918   0.17420  -0.97554
C     1.33107  -1.06204  -1.01576
O     1.67694  -1.94537  -1.99510
C     2.67078  -2.90867  -1.62051
C     0.35838  -1.51109  -0.03080
O    -0.06483  -2.66053  -0.05558
C    -0.09658  -0.57201   1.10971
C     0.56845  -1.07871   2.38901
C    -1.67872  -0.57916   1.15146
C    -2.15161  -0.25002   2.52339
N    -2.56012  -0.03390   3.58560
C    -2.35394  -1.86437   0.84752
N    -3.05752  -2.76722   0.66282
N    -2.07854   0.41637   0.13689
C    -3.23670   1.24773   0.47829
N    -0.91178   1.14494  -0.20474
C    -0.73000   1.73550  -1.41481
C    -1.83074   1.65706  -2.42926
O     0.33405   2.33037  -1.63300
C     0.16655   0.93465   0.77083
C     0.05664   1.90847   1.94252
C     1.56753   1.09728   0.13828
O     2.39585   1.83766   0.62868
H     3.97535   1.73312  -2.95958
H     2.68000   2.53038  -2.00312
H     4.17288   1.93976  -1.18477
H     2.84095  -3.54404  -2.49965
H     2.32278  -3.53129  -0.78179
H     3.61197  -2.40699  -1.34316
H     1.66059  -1.04799   2.26454
H     0.26792  -2.11924   2.57327
H     0.30045  -0.47021   3.26095
H    -3.55476   1.80873  -0.40736
H    -4.06110   0.57972   0.76272
H    -3.02933   1.95301   1.30015
H    -1.37927   1.76840  -3.42315
H    -2.53749   2.48856  -2.27839
H    -2.38552   0.71290  -2.35887
H     0.19128   2.92835   1.55849
H    -0.92155   1.85453   2.43197
H     0.83663   1.71366   2.68820
