17
Generated by autodE on: 2022-07-27. E = -526.623686 Ha
C    -0.66691   1.59584  -2.81449
C    -0.04787   1.19203  -1.51323
O     1.15790   1.06695  -1.33968
N    -0.98098   1.06839  -0.47755
N    -0.69953   0.40852   0.59674
C    -1.41634   0.86161   1.81221
C     0.12648  -0.65511   0.72370
C     0.37075  -1.20445   2.00903
N     0.59794  -1.67668   3.04883
C     0.67408  -1.34117  -0.38859
N     1.10338  -1.97594  -1.26488
H    -1.42857   2.37394  -2.66526
H    -1.17413   0.71441  -3.24342
H     0.10988   1.93834  -3.50946
H    -0.67731   1.25828   2.52149
H    -2.10568   1.64898   1.49930
H    -1.95588   0.01730   2.25795
