17
Generated by autodE on: 2022-06-22. E = -526.623677 Ha
C     3.17240   0.44765   0.80715
C     1.69494   0.63625   0.66105
O     1.17072   1.68027   0.29418
N     0.95811  -0.47434   1.08855
N    -0.27168  -0.63712   0.72936
C    -1.10380  -1.40557   1.68475
C    -0.85954  -0.23305  -0.42024
C    -2.25107  -0.43782  -0.60739
N    -3.39112  -0.58509  -0.79307
C    -0.12622   0.27756  -1.51983
N     0.43146   0.64828  -2.47208
H     3.51218  -0.25414   0.02628
H     3.68795   1.40785   0.68199
H     3.41607  -0.00160   1.78050
H    -1.91441  -0.75515   2.03971
H    -0.45332  -1.69240   2.51401
H    -1.51859  -2.28917   1.18418
