26
Generated by autodE on: 2022-06-22. E = -689.456730 Ha
C     2.36931  -2.51728  -0.04612
O     1.93459  -1.32125  -0.70802
C     0.82642  -0.67776  -0.28288
C     0.82907   0.68640  -0.24409
O     1.97409   1.34182  -0.51872
C     1.95362   2.58726  -1.23005
C    -0.36230   1.41956   0.25655
O    -0.29645   2.62706   0.46642
C    -1.61623   0.66084   0.53581
C    -2.81745   1.44394   0.96586
C    -1.63152  -0.69195   0.45049
C    -2.85342  -1.49474   0.77130
C    -0.42408  -1.43119  -0.02289
O    -0.46537  -2.64143  -0.22646
H     3.46159  -2.54963  -0.16309
H     1.92355  -3.41016  -0.50402
H     2.12277  -2.48959   1.02596
H     2.89936   2.63199  -1.78804
H     1.11350   2.62723  -1.93893
H     1.89345   3.43769  -0.53810
H    -2.61743   2.52165   0.94733
H    -3.12128   1.16093   1.98772
H    -3.67757   1.22815   0.31144
H    -3.18040  -1.30788   1.80733
H    -2.66862  -2.56793   0.64537
H    -3.69377  -1.20288   0.11950
