43
Generated by autodE on: 2022-06-22. E = -1216.063218 Ha. Imaginary frequency = -306.4 cm-1
C     3.02974   1.76931  -2.36898
O     2.69937   0.46680  -1.86942
C     1.94632   0.25088  -0.78637
C     1.68984  -1.05833  -0.45255
O     2.25845  -2.00161  -1.23201
C     1.79232  -3.35278  -1.29554
C     0.96099  -1.38161   0.78258
O     0.93169  -2.53324   1.22029
C     0.25658  -0.28770   1.51556
C    -0.12909  -0.62451   2.92747
C    -2.01706  -0.64384   0.53438
C    -2.70707  -1.48688   1.44925
N    -3.22282  -2.18332   2.22492
C    -1.52219  -1.24336  -0.66060
N    -1.12019  -1.73023  -1.63696
N    -2.23257   0.70714   0.55651
C    -3.13342   1.29678   1.55707
N    -1.30049   1.46515   0.01205
C    -1.13725   1.62018  -1.34592
C    -2.34015   1.37926  -2.23094
O    -0.08699   2.05202  -1.80646
C     0.41015   1.06766   1.10978
C     0.23640   2.16385   2.13053
C     1.53498   1.33790   0.13497
O     2.16134   2.38568   0.20254
H     3.42682   1.59311  -3.37723
H     2.14243   2.40985  -2.42610
H     3.79902   2.24371  -1.74568
H     2.21047  -3.75818  -2.22730
H     0.69617  -3.39669  -1.34124
H     2.15331  -3.94365  -0.44378
H     0.74104  -0.44882   3.58606
H    -0.40584  -1.68056   3.02119
H    -0.94909  -0.00054   3.29929
H    -3.10925   2.38100   1.41333
H    -4.14902   0.91607   1.38322
H    -2.81596   1.04235   2.57684
H    -2.00330   0.82832  -3.11990
H    -2.70780   2.36418  -2.56007
H    -3.15963   0.84236  -1.74030
H     0.25580   3.14814   1.64915
H    -0.70091   2.05573   2.68589
H     1.06374   2.11930   2.85818
