37
Generated by autodE on: 2022-05-30. E = -1853.321013 Ha
C    -0.69450   0.24665  -4.29247
N     0.06527   0.21030  -3.05859
C    -0.18378   1.06350  -2.05794
O    -0.94753   2.02369  -2.14211
C     0.56443   0.79548  -0.75362
N     0.73575   2.01348   0.06830
C     1.50785   1.34324   1.07186
C     2.08874   2.17140   2.12075
N     2.53368   2.82369   2.96713
O     2.63291   0.69799   0.30882
C     2.04584   0.31320  -0.85115
O     2.61417  -0.28982  -1.72170
C     0.57898   0.18599   1.47988
C    -0.02085  -0.16566   0.32320
C    -0.93170  -1.31669   0.04576
Cl   -0.00842  -2.47493  -1.05680
Cl   -2.39391  -0.73776  -0.89027
C    -1.41491  -2.13372   1.24131
C    -2.40717  -1.45641   2.20396
C    -2.10920  -0.03763   2.70115
C    -0.85218   0.14020   3.55351
C     0.46707  -0.30740   2.88231
H    -1.73359  -0.08361  -4.12553
H    -0.22180  -0.42232  -5.02171
H    -0.71911   1.26609  -4.70325
H     0.71982  -0.55008  -2.90250
H     1.30372   2.71135  -0.42499
H    -0.51796  -2.49308   1.76167
H    -1.90160  -3.02753   0.82647
H    -2.50678  -2.13332   3.06888
H    -3.39161  -1.43953   1.71166
H    -2.97277   0.28861   3.30334
H    -2.07499   0.65368   1.84335
H    -0.95183  -0.42282   4.49571
H    -0.76304   1.20449   3.82546
H     1.31665   0.07333   3.46733
H     0.54712  -1.40147   2.90081
