37
Generated by autodE on: 2022-05-30. E = -1853.253359 Ha. Imaginary frequency = -334.8 cm-1
C    -0.80766   0.08105  -4.22369
N     0.17107   0.20972  -3.16429
C     0.11863   1.19529  -2.25058
O    -0.59579   2.20007  -2.32121
C     1.01190   1.00938  -1.08504
N     1.15795   1.98457  -0.15899
C     1.89267   1.46409   0.85779
C     2.41802   2.24232   1.92743
N     2.80799   2.84277   2.84238
O     2.68034   0.46468   0.33719
C     2.09902   0.06879  -0.87530
O     2.53041  -0.85815  -1.52041
C     0.34662   0.16931   1.65334
C    -0.13644  -0.35657   0.62760
C    -1.11977  -1.29013   0.09256
Cl   -0.32216  -2.43068  -1.10862
Cl   -2.41871  -0.36990  -0.81796
C    -1.76778  -2.16473   1.17597
C    -2.71104  -1.48509   2.17776
C    -2.20819  -0.29034   3.00409
C    -0.85564  -0.47974   3.72344
C     0.27926   0.36313   3.11348
H    -1.67019  -0.52193  -3.89257
H    -0.35019  -0.40574  -5.09552
H    -1.16635   1.07533  -4.51639
H     0.73651  -0.60503  -2.93688
H     0.48018   2.74050  -0.04597
H    -0.93141  -2.65478   1.69749
H    -2.33042  -2.95577   0.65845
H    -3.01782  -2.28714   2.87026
H    -3.62537  -1.17821   1.64577
H    -2.99014  -0.07249   3.74854
H    -2.16127   0.60444   2.36180
H    -0.56068  -1.54155   3.71056
H    -0.94251  -0.19803   4.78415
H     0.10518   1.43439   3.31577
H     1.25066   0.12224   3.57577
