40
Generated by autodE on: 2022-06-12. E = -948.024976 Ha
C    -4.26866   0.07268  -1.62774
C    -3.14722   0.80588  -0.95608
O    -3.33022   1.71610  -0.17244
C    -1.69184   0.37695  -1.31387
C    -1.41051   1.01745  -2.70155
C    -0.73050   2.35120  -2.70517
O    -1.76397   0.44386  -3.71261
C    -0.77976   0.81067  -0.26303
C    -0.05969   0.73090   0.70826
C     0.68791   0.03334   1.75174
F     0.63679   0.75720   2.95952
C     2.15385  -0.19146   1.40326
C     2.58896  -0.29659   0.07607
C     3.93028  -0.57311  -0.20691
C     4.84858  -0.74130   0.83275
C     4.41829  -0.63304   2.15947
C     3.07815  -0.36266   2.44428
C    -0.06644  -1.29636   2.00827
C    -0.35568  -2.18265   0.78266
C    -1.64304  -1.92533  -0.04971
C    -1.52055  -1.17170  -1.39088
H    -4.37525  -0.92037  -1.16083
H    -4.05663  -0.09083  -2.69371
H    -5.20319   0.63279  -1.49584
H    -0.74039   2.78115  -3.71472
H    -1.22318   3.02481  -1.98613
H     0.30959   2.22665  -2.36175
H     1.87876  -0.15818  -0.74058
H     4.25713  -0.65226  -1.24636
H     5.89710  -0.95366   0.61112
H     5.13033  -0.75921   2.97859
H     2.74562  -0.27870   3.47990
H     0.54049  -1.86032   2.73387
H    -1.01024  -1.02663   2.50896
H    -0.43525  -3.20754   1.17571
H     0.52261  -2.19734   0.11575
H    -2.05347  -2.91463  -0.30326
H    -2.40770  -1.44754   0.58628
H    -2.26249  -1.55257  -2.10419
H    -0.53426  -1.36861  -1.83912
