22
Generated by autodE on: 2022-07-27. E = -571.058971 Ha
C    -0.80182   1.47493  -2.27890
C    -0.82453   0.63049  -1.02931
O    -1.89648   0.47328  -0.42322
C     0.38821  -0.03317  -0.57951
N     0.31137  -0.84345   0.54328
C    -0.42766  -0.79392   1.63074
C    -0.42756  -1.93628   2.59224
C    -1.15524   0.37464   1.99471
N    -1.68595   1.29787   2.46595
C     1.64197  -0.08837  -1.31769
C     2.75796  -0.95993  -0.76868
O     1.83471   0.55892  -2.35367
H    -0.49433   0.88469  -3.15384
H    -0.07545   2.29512  -2.18400
H    -1.81099   1.88037  -2.43261
H     0.92808  -1.66208   0.52734
H     0.35223  -2.66322   2.32484
H    -1.40632  -2.44462   2.56741
H    -0.26607  -1.57652   3.61947
H     2.45353  -2.01896  -0.70008
H     3.61643  -0.89161  -1.44824
H     3.06556  -0.63494   0.23788
