27
Generated by autodE on: 2022-06-17. E = -835.921062 Ha
C    -3.23153   1.52054  -0.03149
C    -2.17532   0.71449  -0.71364
O    -2.23714   0.34343  -1.86629
C    -0.91626   0.32163   0.10192
C    -1.09857  -1.18412   0.43520
C    -1.81083  -1.53603   1.70176
O    -0.68519  -2.00911  -0.35189
N    -0.80717   1.08512   1.37116
N     0.32754   1.52188   1.57871
C     1.27295   1.17428   0.48069
C     2.32022   0.20078   1.02005
O     2.86399   0.40261   2.09283
C     2.66837  -0.96510   0.18816
C     2.05750  -1.24451  -0.97837
C     0.99077  -0.39350  -1.55289
O     0.67078  -0.50054  -2.72525
C     0.38691   0.67977  -0.66467
H    -3.56528   1.01284   0.88609
H    -2.80529   2.48777   0.28076
H    -4.07528   1.67990  -0.71462
H    -1.18645  -1.23974   2.56038
H    -1.99517  -2.61718   1.73176
H    -2.75528  -0.97715   1.78491
H     1.82320   2.08910   0.21426
H     3.46595  -1.59992   0.58256
H     2.35029  -2.10803  -1.58106
H     0.15552   1.52032  -1.33070
