15
Generated by autodE on: 2022-06-17. E = -454.270458 Ha
C     2.38802   0.91018  -0.20554
C     0.91060   1.07808   0.04759
O     0.41803   2.16841   0.31126
C     0.06988  -0.13003  -0.03383
N     0.67094  -1.27696  -0.32310
N     1.13355  -2.27231  -0.56570
C    -1.39141  -0.27242   0.16467
C    -2.18189   0.95978   0.49797
O    -1.91685  -1.37564   0.05454
H     2.56511   0.50326  -1.21438
H     2.82844   0.20622   0.51907
H     2.88022   1.88613  -0.11255
H    -2.07120   1.71565  -0.29356
H    -1.81032   1.41808   1.42639
H    -3.23641   0.67491   0.60860
