55
Generated by autodE on: 2022-06-22. E = -1116.618747 Ha
C     5.52109  -1.96979  -0.13891
C     4.46830  -1.55485   0.59450
C     4.48328  -1.59836   2.09959
C     3.26834  -1.04577  -0.07849
C     2.15464  -0.60223   0.53180
C     0.94466  -0.13079  -0.21440
N     0.37055   1.11482   0.35236
C     0.76160   2.35302  -0.16745
C    -0.09021   3.47623  -0.10445
C     0.32417   4.70907  -0.60907
C     1.59073   4.86577  -1.18287
C     2.44162   3.75750  -1.23815
C     2.04240   2.51596  -0.73968
N    -1.00996   0.95543   0.63328
C    -1.46465  -0.12411  -0.25958
C    -1.66110   0.63365  -1.60365
C    -2.89136   1.49869  -1.71007
O    -0.84458   0.59699  -2.50531
C    -2.78663  -0.73692   0.16081
C    -3.39166  -0.46792   1.39555
C    -4.59838  -1.08276   1.74585
C    -5.22012  -1.97073   0.86523
C    -4.63023  -2.23519  -0.37528
C    -3.42639  -1.62112  -0.72360
C    -0.25554  -1.13523  -0.21398
C    -0.31741  -1.93942   1.09673
C    -0.14336  -2.13195  -1.36798
H     5.49806  -1.93372  -1.23243
H     6.42914  -2.35602   0.33265
H     3.66479  -2.22847   2.48572
H     4.33283  -0.59261   2.52604
H     5.43553  -1.99599   2.47794
H     3.30371  -1.03095  -1.17445
H     2.08638  -0.58476   1.62261
H     1.22418   0.05139  -1.26182
H    -1.07826   3.36351   0.33741
H    -0.35951   5.56051  -0.55276
H     1.90959   5.83369  -1.57550
H     3.43858   3.85433  -1.67617
H     2.73486   1.67665  -0.78234
H    -1.10019   0.65383   1.60352
H    -3.67521   0.92463  -2.23095
H    -3.28409   1.79330  -0.72984
H    -2.65489   2.38377  -2.31660
H    -2.93547   0.22617   2.10210
H    -5.05375  -0.86049   2.71375
H    -6.16273  -2.44976   1.14003
H    -5.11109  -2.92002  -1.07762
H    -2.98388  -1.82570  -1.70053
H    -0.37459  -1.30169   1.99142
H     0.58040  -2.56642   1.19212
H    -1.19158  -2.60500   1.09733
H    -0.94549  -2.88255  -1.31367
H     0.81377  -2.67166  -1.28568
H    -0.18090  -1.64580  -2.34909
