32
Generated by autodE on: 2022-07-27. E = -765.065917 Ha
C     0.18779  -0.00220  -3.25124
C    -0.78559  -0.72319  -2.35819
O    -1.69461  -1.39810  -2.85736
C    -0.67414  -0.63677  -0.89815
N     0.23337   0.12846  -0.25905
N     1.13075   0.92019  -0.74151
C     1.90459   1.61943   0.18133
C     1.62421   1.75626   1.56047
C     2.48101   2.49152   2.37923
C     3.62077   3.11116   1.85362
C     3.89495   2.99486   0.48552
C     3.04700   2.26322  -0.34183
C    -1.60953  -1.36865  -0.01806
C    -2.16203  -0.73842   1.11503
C    -3.00972  -1.43307   1.98074
C    -3.33659  -2.76683   1.72307
C    -2.80370  -3.40102   0.59477
C    -1.94866  -2.71389  -0.26646
H    -0.05203  -0.25331  -4.29319
H     1.22531  -0.28150  -3.01553
H     0.12585   1.08562  -3.09821
H     0.17921   0.02944   0.76621
H     0.73123   1.31596   2.01098
H     2.24755   2.58943   3.44219
H     4.28402   3.68603   2.50345
H     4.77755   3.47851   0.06011
H     3.25277   2.16500  -1.40952
H    -1.94666   0.31501   1.31087
H    -3.42772  -0.92215   2.85129
H    -4.00569  -3.30950   2.39484
H    -3.04912  -4.44556   0.38829
H    -1.52761  -3.22398  -1.13222
