32
Generated by autodE on: 2022-06-22. E = -765.074407 Ha
C    -2.71367   2.55393  -1.24346
C    -1.30620   2.02368  -1.19612
O    -0.38503   2.63807  -1.76090
C    -1.01480   0.79287  -0.45994
N     0.30032   0.52696  -0.42601
N     0.89285  -0.48700   0.09652
C     2.28510  -0.48772   0.05378
C     2.90662  -1.71538   0.36798
C     4.29393  -1.83509   0.35402
C     5.09508  -0.73165   0.03607
C     4.48869   0.49508  -0.25950
C     3.10069   0.62720  -0.24777
C    -1.99543  -0.07011   0.21781
C    -1.79310  -0.48637   1.54880
C    -2.73789  -1.28375   2.19410
C    -3.89810  -1.68785   1.52356
C    -4.10575  -1.28778   0.20056
C    -3.16292  -0.48753  -0.44807
H    -3.27071   2.35399  -0.31831
H    -3.26093   2.07495  -2.07230
H    -2.67571   3.63379  -1.44146
H     0.83167   1.26276  -0.93265
H     2.27105  -2.56876   0.61231
H     4.75507  -2.79619   0.59372
H     6.18330  -0.82327   0.02859
H     5.10516   1.36706  -0.49102
H     2.66700   1.60916  -0.44903
H    -0.89387  -0.17427   2.08085
H    -2.56929  -1.58999   3.22929
H    -4.63562  -2.31432   2.03074
H    -5.00417  -1.60464  -0.33430
H    -3.32570  -0.19535  -1.48655
