55
Generated by autodE on: 2022-06-22. E = -1116.564394 Ha. Imaginary frequency = -314.9 cm-1
C     5.26797   0.56850   1.02100
C     3.99364   0.17388   1.23685
C     3.46863  -0.05090   2.63149
C     3.07769   0.01492   0.11154
C     1.77740  -0.36802   0.20741
C     0.85168  -0.37610  -0.89648
N    -0.04322   1.54637  -0.53547
C     0.76654   2.36344   0.23976
C     0.47825   2.78254   1.55824
C     1.40209   3.54944   2.26904
C     2.62577   3.91536   1.69442
C     2.90901   3.52236   0.38190
C     1.99213   2.76059  -0.33874
N    -1.18936   1.14541   0.00806
C    -1.91555   0.20061  -0.69996
C    -2.21309   0.46763  -2.14802
C    -1.54446   1.59639  -2.89042
O    -3.01609  -0.24377  -2.74563
C    -3.04100  -0.39940   0.08539
C    -3.51469   0.22755   1.25533
C    -4.55884  -0.32499   2.00098
C    -5.16723  -1.51341   1.59088
C    -4.71983  -2.13854   0.42337
C    -3.67393  -1.59012  -0.32053
C    -0.31193  -1.22729  -0.92674
C    -0.55248  -2.09572   0.29276
C    -0.54302  -1.94201  -2.24206
H     5.96657   0.72216   1.84809
H     5.63917   0.75078   0.00782
H     3.06346  -1.06943   2.74923
H     2.64378   0.64697   2.85251
H     4.25748   0.09585   3.38265
H     3.48566   0.24405  -0.87829
H     1.37387  -0.61053   1.19340
H     1.26722  -0.09493  -1.86765
H    -0.47072   2.52940   2.03348
H     1.16055   3.86756   3.28636
H     3.34515   4.50995   2.26164
H     3.85641   3.80550  -0.08272
H     2.20718   2.45252  -1.36242
H    -1.18074   0.96961   1.01790
H    -2.08560   1.73767  -3.83611
H    -1.53177   2.52558  -2.30579
H    -0.49692   1.34132  -3.10327
H    -3.08976   1.17643   1.58646
H    -4.90359   0.18823   2.90181
H    -5.98546  -1.94557   2.17160
H    -5.18541  -3.06786   0.08638
H    -3.33944  -2.09899  -1.21990
H    -0.66225  -1.50577   1.21537
H     0.29995  -2.78141   0.44023
H    -1.45269  -2.71084   0.17574
H     0.14407  -2.80472  -2.31146
H    -1.56470  -2.33565  -2.33088
H    -0.34573  -1.29249  -3.10712
