32
Generated by autodE on: 2022-07-27. E = -801.476672 Ha
C    -3.88535  -1.60263  -0.99864
N    -2.91684  -0.84138  -0.23808
C    -1.76912  -0.39955  -0.81468
O    -1.56820  -0.62539  -2.02873
C    -0.76506   0.31515  -0.02389
C    -0.60860   0.43953   1.38905
C    -1.72791   0.04363   2.33377
O     0.44288   0.89220   1.90664
N     0.22740   0.96122  -0.81631
C    -0.24813   1.91802  -1.83652
C     1.50681   0.94402  -0.53796
C     2.45080   1.92156  -1.14670
C     2.12273  -0.10148   0.35310
O     3.14405   0.10333   0.97594
O     1.52530  -1.28377   0.26737
C     2.02552  -2.31886   1.12636
H    -3.43369  -2.50627  -1.43857
H    -4.31707  -1.01251  -1.82425
H    -4.69761  -1.90900  -0.32732
H    -3.12331  -0.62886   0.72665
H    -2.66370   0.58510   2.12393
H    -1.92667  -1.03820   2.27842
H    -1.40939   0.28304   3.35615
H     0.27127   1.74792  -2.78748
H    -1.32266   1.79046  -1.97212
H    -0.04438   2.94008  -1.48727
H     2.55640   1.72986  -2.22826
H     2.08536   2.95353  -1.03403
H     3.43504   1.83166  -0.67577
H     3.07885  -2.53522   0.89820
H     1.92984  -2.01048   2.17733
H     1.40352  -3.19915   0.92924
