38
Generated by autodE on: 2022-06-18. E = -880.082284 Ha. Imaginary frequency = -320.7 cm-1
C    -4.35705  -0.50281  -1.30915
N    -3.09069  -0.02760  -0.78626
C    -1.96645  -0.75182  -0.89297
O    -1.91958  -1.81859  -1.52086
C    -0.74645  -0.21309  -0.17678
C    -0.60997  -0.59198   1.21677
C    -1.84288  -1.15129   1.90253
O     0.44167  -0.50110   1.87207
C    -0.95228   2.07060   0.94213
C     0.36654   2.43318   0.76044
C     1.37013   0.89674  -0.44705
C     2.24724   1.74328  -1.34196
C     2.24215   0.15101   0.53104
O     2.96411   0.68650   1.35106
O     2.36598  -1.13888   0.17498
C     3.21784  -1.94239   0.99883
N     0.26297   0.28708  -0.97067
C    -0.13946   0.70496  -2.32486
H    -4.27859  -0.71910  -2.38527
H    -5.11757   0.27251  -1.15677
H    -4.68021  -1.42531  -0.79905
H    -3.06912   0.81290  -0.21968
H    -2.68494  -0.44621   1.87826
H    -2.17074  -2.08007   1.40923
H    -1.58537  -1.37254   2.94612
H    -1.71602   2.40380   0.23426
H    -1.31149   1.67654   1.89333
H     1.07539   2.36692   1.58750
H     0.60467   3.16963  -0.00985
H     2.82441   1.11580  -2.04328
H     1.68135   2.48719  -1.91535
H     2.96611   2.27510  -0.70479
H     4.25204  -1.56905   0.97324
H     2.85466  -1.94261   2.03681
H     3.17294  -2.95665   0.58450
H     0.73602   0.75033  -2.97778
H    -0.82759  -0.03182  -2.74570
H    -0.62856   1.69104  -2.28845
