23
Generated by autodE on: 2022-06-29. E = -351.521385 Ha
C    -2.03703   1.07477  -2.99906
C    -1.80029   0.58587  -1.76186
C    -2.92756   0.13131  -0.87034
C    -0.42913   0.49014  -1.26489
C    -0.05971   0.01738  -0.04800
C     1.31754  -0.05538   0.39542
C     1.76810  -0.51742   1.58923
C     3.23720  -0.52800   1.90446
C     0.88510  -1.04781   2.68291
H    -1.21644   1.40400  -3.64401
H    -3.05273   1.15751  -3.39578
H    -2.94195   0.70092   0.07375
H    -3.90135   0.25701  -1.36426
H    -2.81320  -0.93037  -0.59508
H     0.35383   0.83554  -1.95075
H    -0.83424  -0.32925   0.64149
H     2.06518   0.30526  -0.32144
H     3.84317  -0.13209   1.07634
H     3.58169  -1.55313   2.13084
H     3.44786   0.07054   2.80902
H     1.02893  -0.46151   3.60773
H    -0.18375  -1.03654   2.43384
H     1.16860  -2.08555   2.93263
