40
Generated by autodE on: 2022-07-28. E = -1068.556496 Ha
C    -1.55189   4.56387   1.44905
N    -1.07731   3.35601   0.80135
C    -1.64344   2.15785   1.02493
O    -2.57975   1.99356   1.81518
C    -1.04320   1.02646   0.22949
C    -1.68542   0.64235  -1.00036
O    -1.41917  -0.32524  -1.71135
O    -2.70525   1.48661  -1.29753
C    -3.46344   1.18755  -2.47145
N    -0.06151   0.26557   0.79474
C     0.05607   0.33991   2.26997
C     0.78236  -0.51202   0.09367
C     1.13754  -0.10866  -1.28988
O     1.15883   1.03751  -1.70478
O     1.52407  -1.15276  -2.02868
C     1.96526  -0.86481  -3.36150
C     1.40932  -1.69480   0.70004
C     0.64411  -2.59137   1.47325
C     1.23447  -3.71596   2.05000
C     2.59639  -3.97120   1.86153
C     3.36482  -3.09315   1.08805
C     2.77979  -1.96723   0.51143
H    -1.56148   4.44069   2.54263
H    -2.57525   4.81677   1.12655
H    -0.88360   5.39387   1.18978
H    -0.34327   3.41309   0.10229
H    -2.81371   1.15666  -3.35881
H    -3.98048   0.22161  -2.36940
H    -4.19841   1.99534  -2.57110
H     0.16146   1.39717   2.54384
H    -0.84384  -0.06961   2.74218
H     0.94874  -0.19577   2.59779
H     1.15748  -0.38612  -3.93360
H     2.84370  -0.20357  -3.34478
H     2.22684  -1.83110  -3.80782
H    -0.42409  -2.41145   1.60829
H     0.62439  -4.40186   2.64233
H     3.05755  -4.85309   2.31199
H     4.42995  -3.28442   0.93836
H     3.39003  -1.28250  -0.08016
