63
Generated by autodE on: 2022-06-29. E = -1420.058612 Ha. Imaginary frequency = -264.6 cm-1
C    -2.32926   3.76065   2.46619
N    -1.95575   2.73275   1.51411
C    -2.87679   2.09838   0.76603
O    -4.06639   2.44568   0.76535
C    -2.40539   0.96819  -0.13137
C    -3.56358   0.59508  -1.03336
O    -4.30798  -0.33318  -0.78576
O    -3.79290   1.48622  -1.99798
C    -4.96513   1.27475  -2.79229
C    -0.92605   1.94206  -1.38225
C     0.30401   1.26545  -1.41561
C     0.79083   0.61813  -2.68488
C     1.21293   1.41833  -0.31093
C     2.45380   0.85909  -0.20077
C     3.27807   1.00096   0.97515
C     4.41130   0.30982   1.26652
C     5.12696   0.51970   2.56973
C     5.00942  -0.74076   0.37583
C    -1.01566  -1.02949  -0.20589
C    -1.22514  -1.27377  -1.62528
O    -2.09003  -0.78433  -2.35222
O    -0.32712  -2.15479  -2.12961
C    -0.52444  -2.56939  -3.48143
C    -0.11256  -1.93495   0.54503
C    -0.21421  -3.33576   0.40452
C     0.65199  -4.18956   1.08404
C     1.64901  -3.66730   1.91830
C     1.75487  -2.28441   2.08005
C     0.87773  -1.42870   1.40880
N    -1.73923  -0.08218   0.47969
C    -1.77223  -0.17398   1.95672
H    -2.99515   3.36027   3.24850
H    -2.85300   4.58939   1.96573
H    -1.41966   4.15002   2.93948
H    -0.99044   2.42435   1.48388
H    -4.89943   0.31324  -3.32230
H    -5.86616   1.28432  -2.16172
H    -4.99777   2.10116  -3.51196
H    -0.99617   2.82550  -0.74891
H    -1.51616   1.98588  -2.29637
H     1.28831  -0.34647  -2.51220
H    -0.03397   0.46499  -3.39218
H     1.53016   1.27708  -3.17436
H     0.85488   2.02162   0.53242
H     2.82174   0.23019  -1.01508
H     2.91126   1.70775   1.72942
H     4.64469   1.28998   3.18937
H     6.17873   0.81337   2.40103
H     5.16278  -0.42109   3.14906
H     4.97213  -1.72443   0.87781
H     6.07710  -0.53052   0.18969
H     4.50256  -0.83813  -0.59275
H    -0.40933  -1.72761  -4.17904
H    -1.52366  -3.01118  -3.61168
H     0.24707  -3.32365  -3.67869
H    -0.98712  -3.75457  -0.24093
H     0.54849  -5.27063   0.96432
H     2.33326  -4.33799   2.44341
H     2.52309  -1.86166   2.73174
H     0.97143  -0.35746   1.55401
H    -2.72607   0.22648   2.31490
H    -1.72170  -1.23044   2.23807
H    -0.94317   0.35732   2.43893
