20
Generated by autodE on: 2022-06-22. E = -457.715323 Ha
C     3.15091  -0.26999  -0.32642
N     1.82055   0.18241   0.04553
C     1.67296   1.38656   0.74516
C     0.47362   1.88501   1.08424
C    -0.82874   1.20186   0.74699
C    -0.57054  -0.08442  -0.02080
C    -1.67894  -0.93847  -0.47631
N    -2.92877  -0.50195  -0.17806
O    -1.51398  -2.00641  -1.10090
C     0.69554  -0.49641  -0.31348
H     3.79119  -0.37861   0.56347
H     3.63590   0.44035  -1.01639
H     3.07654  -1.24488  -0.82396
H     2.60871   1.88970   0.99535
H     0.43966   2.82898   1.63300
H    -1.47731   1.88801   0.16452
H    -1.40344   1.00090   1.67446
H    -3.72185  -1.05781  -0.47856
H    -3.10285   0.36157   0.32003
H     0.85259  -1.42362  -0.86688
