24
Generated by autodE on: 2022-07-27. E = -721.631888 Ha
C     2.09308   3.77982   0.89124
N     1.16362   2.67087   0.85030
C     1.37012   1.61209   0.03830
O     2.36100   1.53642  -0.70734
C     0.32539   0.57891   0.12470
C    -0.82828   0.62265   0.95769
O    -1.27001   1.42826   1.76319
O    -1.51045  -0.58225   0.69326
C    -0.82153  -1.28083  -0.21924
C    -1.30035  -2.58719  -0.69027
C    -2.58363  -3.07138  -0.08120
O    -0.66502  -3.21663  -1.52810
N     0.27268  -0.61235  -0.57301
C     1.25526  -1.08988  -1.55685
H     1.72670   4.52072   1.61215
H     3.09850   3.45208   1.20149
H     2.18823   4.26293  -0.09467
H     0.33132   2.67798   1.43747
H    -3.38933  -2.34042  -0.25481
H    -2.84950  -4.03964  -0.52272
H    -2.46884  -3.17323   1.01016
H     1.67089  -2.04374  -1.21254
H     0.75155  -1.24208  -2.51825
H     2.03365  -0.32956  -1.63707
