42
Generated by autodE on: 2022-06-18. E = -866.277942 Ha
C     0.53794  -3.71310   1.74893
C     0.04775  -3.11161   0.65502
C     0.16528  -3.72451  -0.71558
C    -0.60541  -1.75273   0.76127
C    -1.92041  -1.56303   0.00200
O    -2.02820  -0.14762  -0.17119
C    -0.73711   0.32042  -0.53032
C    -0.57277   0.26523  -2.07161
C    -1.80449   0.58348  -2.86764
O     0.48975  -0.01944  -2.58910
C    -0.58596   1.79427  -0.13592
O     0.29612   2.49256  -0.64775
N    -1.45295   2.23255   0.78065
C    -1.40605   3.58560   1.29850
C     0.29592  -0.60706   0.20789
C     1.10439   0.04694   1.29417
C     2.32080   0.60682   1.16614
C     3.08492   0.68594  -0.12716
C     3.00856   1.23886   2.34622
H     1.05522  -4.67563   1.68771
H     0.43681  -3.25978   2.73973
H    -0.81915  -4.05685  -1.08674
H     0.54616  -2.99753  -1.45212
H     0.83478  -4.59664  -0.70792
H    -0.80140  -1.53933   1.82214
H    -1.90633  -2.05668  -0.98510
H    -2.80360  -1.90517   0.55724
H    -1.54126   0.73465  -3.92237
H    -2.31586   1.46962  -2.46216
H    -2.51049  -0.25870  -2.78360
H    -2.14567   1.57065   1.11708
H    -2.23617   3.72670   2.00088
H    -0.45761   3.77710   1.82549
H    -1.49756   4.32240   0.48552
H     0.96823  -0.99838  -0.56298
H     0.62751   0.07867   2.28033
H     4.05306   0.16239  -0.03803
H     3.32198   1.73930  -0.35593
H     2.53824   0.27421  -0.98374
H     3.18776   2.31299   2.16209
H     2.42074   1.13930   3.27075
H     4.00118   0.78422   2.51233
