23
Generated by autodE on: 2022-06-18. E = -351.521383 Ha
C     3.41286   1.56334  -0.45396
C     2.51001   0.59667  -0.17784
C     2.94471  -0.79096   0.21929
C     1.08024   0.88837  -0.26080
C     0.07746   0.01027  -0.00732
C    -1.32683   0.35301  -0.10358
C    -2.38493  -0.46144   0.13877
C    -3.79272   0.04354  -0.00542
C    -2.27044  -1.89867   0.56120
H     3.09421   2.56993  -0.74202
H     4.48831   1.37269  -0.39950
H     2.55552  -1.54580  -0.48409
H     4.04047  -0.87358   0.24295
H     2.55530  -1.05955   1.21538
H     0.81665   1.91166  -0.55440
H     0.33176  -1.01178   0.28633
H    -1.54259   1.38529  -0.40480
H    -4.34467  -0.05859   0.94631
H    -4.35006  -0.55730  -0.74652
H    -3.82661   1.09809  -0.31607
H    -2.78212  -2.05444   1.52742
H    -1.23499  -2.24815   0.66284
H    -2.78453  -2.55254  -0.16533
