19
Generated by autodE on: 2022-06-18. E = -514.666750 Ha
C    -2.13827  -1.58097  -0.60586
O    -1.72807  -0.42268  -0.30202
C    -0.50290   0.10069  -0.03402
C    -0.55031   1.51336   0.23419
C    -1.89387   2.20912   0.18782
O     0.47808   2.18334   0.48422
C     0.66921  -0.78383  -0.06400
O     0.54933  -2.00887  -0.28763
N     1.86670  -0.19710   0.15877
C     3.10438  -0.94005   0.22684
H    -1.43598  -2.40981  -0.70008
H    -3.21877  -1.65041  -0.75648
H    -2.68842   1.62774   0.67518
H    -2.19447   2.36503  -0.86197
H    -1.79448   3.18921   0.67263
H     1.83559   0.80198   0.37511
H     3.40857  -1.14825   1.26796
H     3.91341  -0.37327  -0.25724
H     2.98718  -1.89981  -0.29214
