20
Generated by autodE on: 2022-06-24. E = -698.280034 Ha
C     4.67961   1.01554   0.37356
O     3.59089   0.11624   0.11258
C     2.36962   0.62029   0.21931
O     2.10513   1.77396   0.51688
N     1.42632  -0.37685  -0.06262
N     0.23535   0.10205   0.03649
C    -0.90218  -0.54560  -0.15990
C    -0.90236  -1.91489  -0.51953
N    -0.91483  -3.04029  -0.81534
C    -2.13867   0.24761   0.01678
O    -2.12321   1.42264   0.32868
O    -3.22295  -0.48086  -0.20767
C    -4.49196   0.18426  -0.07249
H     4.62270   1.39451   1.40415
H     4.65567   1.85894  -0.33155
H     5.59391   0.42808   0.23361
H     0.13466   1.10881   0.29802
H    -5.25046  -0.57319  -0.29744
H    -4.55852   1.01930  -0.78402
H    -4.61482   0.55878   0.95347
