46
Generated by autodE on: 2022-06-24. E = -1387.708892 Ha. Imaginary frequency = -392.5 cm-1
C     3.59543  -3.40867  -0.04021
O     2.86548  -2.18677  -0.23919
C     1.54686  -2.24526  -0.03708
O     0.93706  -3.25150   0.27744
N     0.89640  -1.03975  -0.26399
N     1.62885   0.05580  -0.44827
C     0.93550   1.10919  -0.96731
C     0.19853   0.92457  -2.16858
N    -0.41229   0.78778  -3.15009
C     1.40419   2.45127  -0.56856
O     2.12590   2.62699   0.39447
O     0.92073   3.41265  -1.34978
C     1.25145   4.76546  -0.99312
C    -0.89135   0.76587   0.67119
O    -0.68443   1.82495   1.46428
C    -1.28518   3.10762   1.24292
C    -2.00255   0.67536  -0.31033
O    -2.53999   1.68149  -0.76563
C    -2.44311  -0.67575  -0.77812
C    -3.34125  -0.65062  -1.97645
C    -2.10065  -1.78782  -0.07875
C    -2.53770  -3.18871  -0.36078
C    -1.27608  -1.63511   1.15385
O    -1.37799  -2.39171   2.10423
C    -0.32630  -0.46809   1.19042
O     0.44517  -0.24901   2.26626
C     1.28179  -1.27284   2.82760
H     3.21705  -4.19376  -0.70981
H     4.63905  -3.17462  -0.27867
H     3.50597  -3.73714   1.00512
H     2.35686   0.29444   0.23808
H     2.34102   4.90737  -1.00989
H     0.77074   5.39843  -1.74690
H     0.86068   4.99766   0.00790
H    -0.80044   3.77435   1.96669
H    -2.36608   3.06757   1.43803
H    -1.11298   3.45974   0.22052
H    -2.87174  -0.07231  -2.78551
H    -4.28895  -0.14401  -1.73131
H    -3.56904  -1.65563  -2.34760
H    -1.65210  -3.82527  -0.52241
H    -3.06053  -3.59834   0.51816
H    -3.19521  -3.26374  -1.23312
H     2.23995  -1.29437   2.28669
H     1.46883  -0.97110   3.86554
H     0.80688  -2.25734   2.80315
