48
Generated by autodE on: 2022-05-30. E = -1074.892933 Ha
C     1.43421  -2.88809   0.58258
C     1.26207  -1.63283  -0.19819
C     2.05002  -0.54276  -0.36065
C     3.38360  -0.22880   0.15023
C     3.75060   1.11356   0.38581
C     5.01356   1.43483   0.88597
C     5.94515   0.42624   1.15234
C     5.60236  -0.90795   0.90663
C     4.33984  -1.23364   0.40928
C     1.16273   0.47340  -1.08816
O     0.34606  -0.37797  -1.90733
C    -0.06694  -1.25785  -0.84893
C    -0.76831  -0.26850   0.11857
C    -2.17148   0.19416  -0.33300
C    -3.30401  -0.53772   0.34488
C    -3.66885  -0.25272   1.66980
C    -4.68065  -0.98033   2.30044
C    -5.33919  -2.00958   1.61766
C    -4.98050  -2.30254   0.29882
C    -3.97114  -1.56827  -0.33212
N    -2.13668   1.63125  -0.03676
C    -0.83111   2.12767  -0.48386
C    -0.48133   3.48003   0.14166
C    -0.82880   2.30171  -1.96157
N    -0.89820   2.49831  -3.10427
C     0.13458   0.98951  -0.04368
H     1.64799  -3.74537  -0.08012
H     2.24681  -2.81922   1.31907
H     0.49907  -3.12964   1.11512
H     3.03497   1.91422   0.18831
H     5.27190   2.48100   1.06738
H     6.93480   0.67845   1.54034
H     6.32855  -1.70258   1.09491
H     4.10069  -2.27552   0.19349
H     1.66554   1.23788  -1.69108
H    -0.69092  -2.07687  -1.22717
H    -0.79644  -0.64501   1.14818
H    -2.25403   0.01058  -1.42088
H    -3.15702   0.54965   2.20378
H    -4.95694  -0.74423   3.33119
H    -6.13060  -2.57832   2.11182
H    -5.49105  -3.10204  -0.24372
H    -3.69660  -1.79357  -1.36616
H    -2.90663   2.13457  -0.47925
H    -1.21025   4.24933  -0.15374
H     0.52038   3.80367  -0.17829
H    -0.49276   3.37845   1.23607
H     0.62684   1.29245   0.88715
