22
Generated by autodE on: 2022-05-30. E = -496.778322 Ha
C     3.25499   0.96340   0.46903
C     2.56650  -0.23428  -0.09493
C     3.25819  -1.33510  -0.60866
N     3.86297  -2.24910  -1.03490
N     1.20491  -0.27328  -0.11976
C     0.34186   0.63972   0.30459
C    -1.09130   0.48404   0.22302
C    -1.73390  -0.66091  -0.30598
C    -3.12393  -0.73781  -0.35281
C    -3.91479   0.31604   0.12309
C    -3.29377   1.45447   0.65018
C    -1.90413   1.53933   0.70046
H     4.34451   0.84247   0.41520
H     2.97569   1.12914   1.52681
H     2.97974   1.88304  -0.08137
H     0.80715  -1.12403  -0.52477
H     0.75333   1.55148   0.73484
H    -1.15046  -1.50442  -0.68414
H    -3.59704  -1.63216  -0.76553
H    -5.00420   0.24894   0.08341
H    -3.89858   2.28373   1.02525
H    -1.42521   2.43090   1.11288
