48
Generated by autodE on: 2022-05-30. E = -1074.799694 Ha. Imaginary frequency = -265.2 cm-1
C     1.59119  -2.95031   0.89300
C     1.37316  -1.69492   0.12714
C     2.17700  -0.65146  -0.18145
C     3.58393  -0.38519   0.10113
C     4.03115   0.94573   0.24948
C     5.36729   1.22679   0.53927
C     6.29368   0.18787   0.67708
C     5.86983  -1.13615   0.51526
C     4.53464  -1.42137   0.22741
C     1.21677   0.39792  -0.81133
O     0.30770  -0.47816  -1.50330
C    -0.03448  -1.25623  -0.34455
C    -0.51180  -0.14132   0.60536
C    -2.53369   0.49285  -0.42534
C    -3.55772  -0.35337   0.16258
C    -4.29252  -0.00012   1.31535
C    -5.22212  -0.88307   1.86283
C    -5.43852  -2.13941   1.28285
C    -4.71288  -2.50402   0.14326
C    -3.78528  -1.62303  -0.41149
N    -2.39831   1.79265  -0.12272
C    -1.37784   2.59776  -0.54559
C    -1.14876   3.89960   0.16958
C    -0.87169   2.44185  -1.85092
N    -0.42282   2.36722  -2.93093
C     0.31513   0.91995   0.32180
H     1.58293  -3.83405   0.23008
H     2.54175  -2.94999   1.44443
H     0.76824  -3.09534   1.61439
H     3.31965   1.76842   0.15073
H     5.68744   2.26502   0.65706
H     7.34032   0.40816   0.89972
H     6.58858  -1.95464   0.60436
H     4.22723  -2.45649   0.07308
H     1.65979   1.13230  -1.49209
H    -0.74506  -2.05831  -0.57899
H    -1.03747  -0.33279   1.53979
H    -2.07820   0.17143  -1.36026
H    -4.13839   0.96881   1.79707
H    -5.78199  -0.58937   2.75407
H    -6.16705  -2.82784   1.71694
H    -4.87363  -3.48098  -0.31908
H    -3.22403  -1.90864  -1.30437
H    -2.86190   2.11953   0.72476
H    -1.81175   4.70601  -0.19260
H    -0.11066   4.23174   0.02465
H    -1.31629   3.77515   1.25066
H     0.59238   1.74241   0.97808
