24
Generated by autodE on: 2022-05-31. E = -593.038484 Ha
C    -2.99640  -1.98948   1.17833
N    -2.61738  -0.65377   0.78213
O    -1.34359  -0.71063   0.44854
C    -0.60266   0.26228  -0.03594
C    -1.15216   1.55188  -0.49683
C    -2.62350   1.71133  -0.76058
O    -0.37678   2.48672  -0.70921
C     0.82306  -0.07851  -0.06230
C     1.71702   0.50642  -0.98550
C     3.05970   0.13104  -1.00487
C     3.54323  -0.83194  -0.11298
C     2.66664  -1.42200   0.80413
C     1.32427  -1.04968   0.83331
H    -3.97683  -1.92030   1.66814
H    -2.26940  -2.44151   1.87722
H    -3.09467  -2.66797   0.30876
H    -3.15747   1.90108   0.18320
H    -2.75282   2.57312  -1.43014
H    -3.06810   0.80294  -1.19138
H     1.35500   1.24729  -1.69542
H     3.73399   0.59157  -1.73073
H     4.59699  -1.11923  -0.13082
H     3.03383  -2.17045   1.51024
H     0.65262  -1.50165   1.56466
