24
Generated by autodE on: 2022-07-27. E = -593.045316 Ha
C    -1.65953  -2.32804  -2.42316
N    -0.91688  -1.81589  -1.29339
O    -0.86003  -0.51052  -1.44419
C    -0.32010   0.34719  -0.60759
C    -0.44564   1.72476  -1.11302
C    -1.20455   1.93761  -2.40224
O     0.06218   2.67004  -0.50969
C     0.34421  -0.03023   0.63631
C     0.30252   0.84823   1.74425
C     0.95490   0.52424   2.93136
C     1.67252  -0.67208   3.04143
C     1.72457  -1.54803   1.95308
C     1.05986  -1.24168   0.76610
H    -1.16923  -2.09278  -3.38607
H    -1.70857  -3.41898  -2.31236
H    -2.69077  -1.92992  -2.46225
H    -0.72494   1.39726  -3.23278
H    -1.21984   3.01249  -2.62274
H    -2.23454   1.55865  -2.31948
H    -0.25229   1.78133   1.67087
H     0.90001   1.21017   3.77983
H     2.18405  -0.92236   3.97378
H     2.28248  -2.48417   2.02947
H     1.09824  -1.93649  -0.06886
