49
Generated by autodE on: 2022-05-31. E = -1166.327576 Ha. Imaginary frequency = -181.6 cm-1
C    -1.33751   3.89192   0.27255
N    -1.21503   2.50559   0.67677
C    -1.42506   1.49766  -0.19814
O    -1.84847   1.71283  -1.34606
C    -1.14516   0.13077   0.30104
C    -1.05502  -0.25579   1.77180
C    -2.54415  -0.40636   2.23241
C    -3.01674  -1.68077   1.47581
C    -1.73996  -2.11353   0.69209
C    -0.63511  -1.73450   1.69021
C    -1.53916  -1.03068  -0.36826
C    -2.28239  -1.05847  -1.58165
N    -2.89530  -1.18818  -2.56405
N     0.39507  -1.78723  -1.34097
C     0.09405  -2.51552  -2.55065
O     0.83914  -0.58432  -1.70400
C     1.24105   0.28140  -0.78250
C     1.33845   1.64681  -1.36175
C     0.97217   1.81967  -2.81192
O     1.69182   2.59486  -0.66738
C     1.99185  -0.11492   0.41633
C     2.04573   0.72597   1.54397
C     2.81922   0.37556   2.65188
C     3.56024  -0.80846   2.65147
C     3.52803  -1.64159   1.52626
C     2.74936  -1.30473   0.42230
H    -2.32743   4.08233  -0.16755
H    -1.21350   4.53185   1.15496
H    -0.57277   4.16326  -0.47359
H    -0.76842   2.29786   1.56265
H    -0.44867   0.39766   2.40823
H    -3.14071   0.48437   1.99248
H    -2.57372  -0.55056   3.32236
H    -3.86602  -1.49283   0.80324
H    -3.30876  -2.47952   2.17283
H    -1.75488  -3.13790   0.30247
H    -0.74318  -2.25368   2.65333
H     0.37217  -1.88764   1.29500
H    -0.37010  -1.89174  -3.33275
H     1.02127  -2.95950  -2.95801
H    -0.58108  -3.33879  -2.27949
H     1.56194   1.14261  -3.44834
H     1.15733   2.86299  -3.09736
H    -0.08939   1.57650  -2.95910
H     1.47183   1.64855   1.55402
H     2.83738   1.03422   3.52316
H     4.16099  -1.08293   3.52157
H     4.11205  -2.56466   1.51080
H     2.72411  -1.96996  -0.43980
