34
Generated by autodE on: 2022-05-31. E = -3944.920848 Ha
C     4.07777   2.26029   1.77808
O     3.10164   1.26214   1.41385
C     2.40426   1.48363   0.31700
O     2.52553   2.42358  -0.42985
C     1.42216   0.31943   0.02781
C     2.13788  -0.49948  -0.98729
N     2.77903  -1.15924  -1.69275
N     1.07995  -0.44433   1.21481
C    -0.09934  -1.24251   0.93327
C     0.22529  -2.47659   0.15818
N     0.58244  -3.44952  -0.36040
C    -0.75582  -1.72774   2.16509
N    -1.27953  -2.16379   3.10127
C    -1.00645  -0.22733   0.14114
Br   -2.11912  -1.21918  -1.14060
C    -1.94570   0.68805   0.97565
C    -1.24076   1.29925   2.20744
C    -0.24950   2.31481   1.58812
C    -0.49572   2.17048   0.07270
C    -2.01515   1.91670   0.04701
C     0.02557   0.81361  -0.48186
Cl    0.02281   0.90689  -2.27869
H     4.54791   1.89390   2.69662
H     4.82081   2.36609   0.97587
H     3.57570   3.22122   1.95578
H     1.85763  -0.95704   1.63209
H    -2.88874   0.18485   1.21531
H    -2.01002   1.80151   2.81064
H    -0.75104   0.56970   2.86004
H     0.78255   2.13789   1.90823
H    -0.49725   3.34685   1.87264
H    -0.11720   3.00624  -0.52326
H    -2.41452   1.70487  -0.95291
H    -2.58256   2.74300   0.49561
