17
Generated by autodE on: 2022-07-27. E = -638.809859 Ha
C     1.99068   3.04311   1.39024
O     1.20308   1.90340   0.99989
C     1.30050   1.49624  -0.26352
O     1.99883   2.00299  -1.11679
C     0.43589   0.32214  -0.52138
C     0.43427  -0.22375  -1.82625
N     0.47143  -0.63243  -2.91569
N    -0.29126  -0.16166   0.48565
C    -1.15739  -1.18484   0.59074
C    -1.49380  -2.02785  -0.49709
N    -1.81143  -2.75308  -1.35119
C    -1.76223  -1.43165   1.84967
N    -2.26963  -1.65274   2.87458
H     1.77255   3.20687   2.45094
H     3.05865   2.82950   1.24433
H     1.70049   3.92105   0.79648
H    -0.14446   0.37360   1.35469
