17
Generated by autodE on: 2022-05-31. E = -638.812401 Ha
C     4.08528  -0.57346  -0.73022
O     2.78754   0.05023  -0.74421
C     1.81000  -0.58884  -0.12399
O     1.90705  -1.65316   0.45890
C     0.52227   0.13906  -0.20745
C     0.40931   1.37974  -0.87316
N     0.36787   2.40129  -1.43106
N    -0.48922  -0.47677   0.40062
C    -1.79015  -0.18607   0.55972
C    -2.59907  -1.08620   1.29913
N    -3.28167  -1.81092   1.90370
C    -2.39031   0.97863   0.02005
N    -2.93869   1.91587  -0.40078
H     4.74465   0.10031  -1.28776
H     4.03599  -1.55646  -1.21913
H     4.43707  -0.68836   0.30454
H    -0.17395  -1.36297   0.83172
