17
Generated by autodE on: 2022-05-31. E = -3306.076367 Ha
Cl   -0.17833   2.36175   0.53466
C    -0.48851   0.93824  -0.39118
C     0.14406  -0.24610  -0.32945
Br    1.57062  -0.72697   0.79813
C    -0.66810  -1.23877  -1.14638
C    -1.97683  -1.49331  -0.33055
C    -2.70546  -0.11975  -0.40240
C    -1.72623   0.75193  -1.25366
C    -1.19584  -0.29869  -2.25200
H    -0.12982  -2.14144  -1.45852
H    -2.56720  -2.28747  -0.81083
H    -1.75591  -1.81188   0.69803
H    -2.88465   0.32719   0.58570
H    -3.67376  -0.20416  -0.91730
H    -2.15363   1.67711  -1.65805
H    -0.40007   0.08885  -2.90383
H    -1.99296  -0.75574  -2.85760
