34
Generated by autodE on: 2022-05-31. E = -3944.847688 Ha. Imaginary frequency = -340.8 cm-1
C     3.78539   2.52739   1.96594
O     3.00796   1.36269   1.62678
C     2.71751   1.18286   0.34433
O     3.11694   1.86650  -0.57268
C     1.80359   0.01961   0.13056
C     2.05853  -0.68229  -1.08657
N     2.31958  -1.22263  -2.08151
N     1.30878  -0.63797   1.21352
C     0.25904  -1.51253   1.13783
C     0.25602  -2.55841   0.16120
N     0.21402  -3.44982  -0.58338
C    -0.43434  -1.85881   2.33821
N    -1.04558  -2.16604   3.27894
C    -1.19951   0.02945  -0.04520
Br   -2.19736  -1.15783  -1.14725
C    -2.01777   0.83405   0.98745
C    -1.18322   1.29552   2.20408
C    -0.18199   2.30584   1.58755
C    -0.55176   2.29969   0.09072
C    -2.10082   2.17277   0.19412
C    -0.27330   0.94710  -0.60233
Cl    0.00224   1.03839  -2.32470
H     3.91718   2.49006   3.05236
H     4.75768   2.48980   1.45633
H     3.24176   3.43624   1.67256
H     1.43923  -0.15875   2.10800
H    -2.95920   0.34174   1.25398
H    -1.86471   1.79019   2.91055
H    -0.70756   0.48215   2.76002
H     0.86324   2.06709   1.79331
H    -0.35266   3.32029   1.97450
H    -0.14466   3.14238  -0.47858
H    -2.59330   2.06929  -0.78297
H    -2.57134   2.99068   0.76197
