63
Generated by autodE on: 2022-06-09. E = -1387.538373 Ha
C     2.71142  -3.09540   2.25902
O     1.83099  -2.60970   1.23380
C     2.37421  -1.86987   0.27383
O     3.56855  -1.64893   0.18691
C     1.38439  -1.39721  -0.78536
C     1.67441  -2.26856  -2.01628
O     0.01818  -1.58592  -0.37462
C    -0.79147  -0.36797  -0.33041
C    -1.63069  -0.25880  -1.60247
C    -1.81377  -1.37001  -2.43523
C    -2.62874  -1.28789  -3.56877
C    -3.28574  -0.09448  -3.87944
C    -3.12009   1.01662  -3.04638
C    -2.29858   0.93404  -1.92020
C    -1.71540  -0.56529   0.88664
C    -2.95760   0.07450   1.00322
C    -3.73042  -0.05623   2.16106
C    -3.28446  -0.84371   3.22428
C    -2.06154  -1.51124   3.10770
C    -1.29065  -1.37672   1.95248
C     0.33911   0.76296  -0.19101
C     0.59842   0.95334   1.31081
C    -0.35459   1.69976   2.02855
C    -0.25887   1.87368   3.40815
C     0.81305   1.31504   4.11384
C     1.79904   0.62287   3.40982
C     1.69504   0.45676   2.02348
C     0.50448   2.21406  -0.82594
C     0.53275   2.30082  -2.38543
C     1.93387   1.73423  -2.80427
C     2.43814   1.17244  -1.45752
C     2.03274   2.36751  -0.56059
C     1.37199   0.09008  -1.11202
H     2.08727  -3.69402   2.93189
H     3.50720  -3.71396   1.82119
H     3.15721  -2.25156   2.80511
H     2.71289  -2.12179  -2.34507
H     0.99635  -1.99083  -2.83403
H     1.52744  -3.33205  -1.77475
H    -1.31263  -2.30529  -2.19000
H    -2.75179  -2.16460  -4.20945
H    -3.92354  -0.02966  -4.76416
H    -3.62620   1.95693  -3.27748
H    -2.16791   1.81290  -1.28830
H    -3.33507   0.70049   0.19737
H    -4.68891   0.46435   2.22677
H    -3.88681  -0.94330   4.13041
H    -1.69900  -2.13989   3.92486
H    -0.33547  -1.89002   1.88091
H    -1.20283   2.13340   1.49851
H    -1.02812   2.44292   3.93555
H     0.88779   1.43804   5.19689
H     2.66643   0.21361   3.93358
H     2.52019  -0.02126   1.50545
H    -0.13705   2.97241  -0.36247
H     0.43324   3.35868  -2.66951
H    -0.28727   1.76396  -2.87105
H     2.59765   2.52920  -3.17696
H     1.85754   0.95970  -3.58222
H     3.48625   0.85132  -1.42187
H     2.42252   3.31777  -0.95512
H     2.32944   2.28958   0.48804
H     0.79504   0.01182  -2.04183
