36
Generated by autodE on: 2022-06-09. E = -883.475809 Ha
C     4.17016   0.78935   2.21558
O     2.96343   0.44934   1.53459
C     2.96373  -0.74363   0.87469
O     3.94550  -1.49188   0.89243
C     1.74068  -1.03143   0.18306
C     1.57642  -2.22577  -0.67934
O     0.83166  -0.05108   0.25754
C    -0.38742   0.11277  -0.17918
C    -0.84980   1.49271  -0.11564
C    -2.22029   1.81791  -0.23290
C    -2.64264   3.14409  -0.15983
C    -1.71657   4.17399   0.03843
C    -0.35636   3.86426   0.16671
C     0.07650   2.54405   0.08738
C    -1.23528  -1.01205  -0.59294
C    -1.36014  -2.14228   0.23928
C    -2.21294  -3.18844  -0.11572
C    -2.94372  -3.12776  -1.30578
C    -2.82783  -2.00732  -2.13774
C    -1.98837  -0.95317  -1.78243
H     5.01554   0.86559   1.51435
H     4.41420   0.04304   2.98702
H     3.98994   1.76397   2.68623
H     0.90257  -2.99583  -0.26259
H     1.16415  -1.94659  -1.66384
H     2.56434  -2.68247  -0.82307
H    -2.95906   1.02712  -0.36321
H    -3.70671   3.37452  -0.24966
H    -2.05186   5.21204   0.09414
H     0.37372   4.66214   0.32156
H     1.13737   2.31002   0.18069
H    -0.80460  -2.18664   1.17783
H    -2.30677  -4.05500   0.54256
H    -3.60470  -3.95133  -1.58525
H    -3.39323  -1.95764  -3.07104
H    -1.89499  -0.08410  -2.43584
