36
Generated by autodE on: 2022-07-27. E = -883.475850 Ha
C     4.29137  -0.84868   1.93647
O     3.05337  -0.63598   1.26039
C     2.96154  -1.15151   0.00150
O     3.90767  -1.74520  -0.52461
C     1.69174  -0.93227  -0.62803
C     1.35099  -1.49471  -1.95625
O     0.79652  -0.32045   0.15856
C    -0.43139   0.09541   0.00458
C    -1.02347   0.33111  -1.31755
C    -0.31446   1.07597  -2.28131
C    -0.89562   1.36418  -3.51690
C    -2.18297   0.90666  -3.81292
C    -2.89513   0.16669  -2.86098
C    -2.32609  -0.11270  -1.61990
C    -1.10562   0.40099   1.25913
C    -2.29819   1.15898   1.29151
C    -2.92362   1.44433   2.50386
C    -2.37585   0.99126   3.70902
C    -1.18795   0.24898   3.69180
C    -0.55996  -0.04812   2.48597
H     4.18735  -0.37182   2.91913
H     4.49670  -1.92280   2.06438
H     5.12743  -0.38988   1.38673
H     1.28075  -0.74260  -2.76256
H     2.13064  -2.21619  -2.23325
H     0.37737  -2.01299  -1.92463
H     0.68422   1.44960  -2.04753
H    -0.33902   1.95026  -4.25162
H    -2.63304   1.12711  -4.78357
H    -3.89926  -0.19742  -3.08986
H    -2.88074  -0.69512  -0.88229
H    -2.72645   1.54086   0.36476
H    -3.84317   2.03406   2.50803
H    -2.87037   1.21585   4.65675
H    -0.75308  -0.10856   4.62810
H     0.36009  -0.63328   2.47822
