63
Generated by autodE on: 2022-06-09. E = -1387.482080 Ha. Imaginary frequency = -304.9 cm-1
C     3.35268  -3.18717   1.58456
O     2.22993  -2.58367   0.93222
C     2.35307  -2.35482  -0.38782
O     3.35770  -2.66161  -1.01617
C     1.22298  -1.61708  -0.97409
C     1.05427  -1.72731  -2.45701
O     0.15650  -1.61128  -0.15550
C    -0.96569  -0.89973  -0.15281
C    -1.70381  -0.56170  -1.39202
C    -2.04569  -1.57880  -2.30318
C    -2.80205  -1.28847  -3.43942
C    -3.25335   0.01501  -3.67083
C    -2.94847   1.02512  -2.75274
C    -2.18123   0.73962  -1.62264
C    -1.66295  -0.94495   1.12074
C    -2.91225  -0.30505   1.30719
C    -3.55651  -0.34127   2.54064
C    -2.98786  -1.02746   3.62029
C    -1.76670  -1.68773   3.44540
C    -1.10546  -1.63998   2.22251
C     0.95495   1.22992   0.00165
C     0.41229   1.37813   1.34807
C    -0.62150   2.30379   1.62922
C    -1.08845   2.49934   2.92756
C    -0.53964   1.78360   3.99881
C     0.48052   0.86200   3.74108
C     0.94206   0.65399   2.44310
C     0.99424   2.40855  -0.98459
C     0.83122   1.94523  -2.46116
C     2.18598   1.25976  -2.77710
C     2.86423   1.21533  -1.39217
C     2.52788   2.66280  -0.92462
C     2.05423   0.42660  -0.34684
H     3.07402  -3.27884   2.64087
H     3.56157  -4.18059   1.16142
H     4.24577  -2.55348   1.48288
H     2.04444  -1.75034  -2.92440
H     0.46922  -0.91033  -2.88408
H     0.54331  -2.67535  -2.70201
H    -1.72064  -2.60237  -2.11151
H    -3.05028  -2.08800  -4.14146
H    -3.84749   0.24100  -4.55931
H    -3.29902   2.04565  -2.92289
H    -1.92676   1.53380  -0.92070
H    -3.38265   0.22399   0.47990
H    -4.51432   0.17040   2.66047
H    -3.49865  -1.05736   4.58537
H    -1.31576  -2.23257   4.27817
H    -0.15366  -2.15327   2.09994
H    -1.07193   2.86999   0.81242
H    -1.89483   3.21578   3.10519
H    -0.90391   1.93984   5.01662
H     0.91481   0.28500   4.56158
H     1.73350  -0.07659   2.27214
H     0.34973   3.25204  -0.71425
H     0.65114   2.81336  -3.11300
H    -0.01724   1.26429  -2.58209
H     2.79874   1.88404  -3.44531
H     2.08493   0.28413  -3.25464
H     3.92533   0.93422  -1.42172
H     2.88370   3.44150  -1.62091
H     2.88063   2.89043   0.09215
H     2.60324  -0.12145   0.41670
