39
Generated by autodE on: 2022-06-21. E = -1179.629398 Ha
C     4.93353   1.12754   0.07619
O     3.80741   0.23802   0.09414
C     2.77825   0.58730  -0.67981
O     2.73456   1.58484  -1.37903
N     1.78532  -0.36548  -0.68491
O     1.96637  -1.47022   0.20283
C     0.68078  -1.88406   0.62972
C     0.36210  -1.30380   1.95094
N     0.13318  -0.85995   2.99714
C    -0.28011  -1.44232  -0.51361
C    -0.21059  -2.47448  -1.64501
C    -1.72860  -1.34262  -0.02228
O    -2.33617  -2.37397   0.23170
C    -2.35619  -0.02321   0.15075
O    -3.66217   0.08666   0.44940
C    -4.62780  -0.77419  -0.17341
C    -1.59148   1.11950   0.21753
O    -2.18632   2.25669   0.57898
C    -1.54839   3.52701   0.36944
C    -0.11954   1.00601   0.08884
O     0.64815   1.74002   0.68177
C     0.36522  -0.08121  -0.89163
C     0.07250   0.38966  -2.32280
H     5.67565   0.68120   0.74810
H     4.64334   2.12355   0.44005
H     5.34375   1.21140  -0.94038
H     0.70169  -2.97721   0.73888
H    -0.57813  -3.43927  -1.27344
H     0.82342  -2.59727  -1.99301
H    -0.83816  -2.16666  -2.49137
H    -5.57109  -0.21162  -0.17257
H    -4.75128  -1.70673   0.39172
H    -4.34175  -1.00197  -1.21081
H    -2.35436   4.26975   0.41875
H    -0.80661   3.72485   1.15334
H    -1.07069   3.56698  -0.62023
H     0.43205   1.41596  -2.46422
H     0.58302  -0.26256  -3.04212
H    -1.00816   0.36183  -2.51253
