13
Generated by autodE on: 2022-07-27. E = -490.079027 Ha
C     1.24544   1.96728   1.89920
O     1.57141   1.12104   0.78949
C     0.53768   0.65354   0.07718
O    -0.63788   0.89348   0.33686
N     1.03136  -0.02924  -1.00886
O     0.05534  -0.61196  -1.75910
C    -1.02789  -1.17970  -1.39402
C    -1.40079  -1.49042  -0.06284
N    -1.74430  -1.88950   0.97555
H     0.57221   1.44940   2.59786
H     0.76826   2.89567   1.55188
H     2.19781   2.19657   2.39147
H    -1.63520  -1.55405  -2.22521
