13
Generated by autodE on: 2022-06-21. E = -490.079076 Ha
C    -2.43353  -1.73513  -0.29385
O    -1.88252  -0.49321  -0.75045
C    -0.84667  -0.01225  -0.04966
O    -0.35639  -0.57889   0.92278
N    -0.52275   1.22750  -0.54615
O     0.56565   1.77421   0.06610
C     1.63902   1.21425   0.46967
C     2.02927  -0.12325   0.21167
N     2.48977  -1.16181  -0.04266
H    -2.86043  -1.62325   0.71383
H    -3.22320  -1.99364  -1.00894
H    -1.66278  -2.51965  -0.27924
H     2.34754   1.90032   0.94616
