31
Generated by autodE on: 2022-06-21. E = -817.530470 Ha
C    -1.41209   4.26965   1.43715
N    -1.29839   3.02315   0.71118
C    -0.31298   2.13951   0.97937
O     0.55640   2.37054   1.83578
C    -0.39331   0.86127   0.22532
C    -1.75977   0.40982  -0.21115
O    -2.40806   1.08972  -1.02462
N    -2.27243  -0.69072   0.36674
C    -1.62775  -1.55635   1.33456
N     0.68357   0.11736  -0.07530
C     2.03558   0.57896   0.33629
C     0.59028  -1.02338  -0.79829
C     1.60889  -2.02602  -0.95067
O     2.74306  -2.07472  -0.47988
O     1.12348  -3.03184  -1.73361
C     1.99893  -4.13630  -1.95914
H    -1.42562   4.09280   2.52392
H    -2.34653   4.76553   1.14688
H    -0.57073   4.94871   1.21938
H    -1.93830   2.80888  -0.05029
H    -3.18532  -0.97034   0.01201
H    -0.90208  -0.98587   1.92879
H    -2.38708  -1.95945   2.01787
H    -1.10750  -2.39995   0.85193
H     2.21819   0.28481   1.37617
H     2.07858   1.66621   0.25602
H     2.77146   0.11413  -0.31835
H    -0.37289  -1.24383  -1.24826
H     1.44551  -4.83851  -2.59481
H     2.27106  -4.62576  -1.01140
H     2.91860  -3.81433  -2.47121
