21
Generated by autodE on: 2022-06-05. E = -797.432673 Ha
C     2.83540  -1.47905   0.93321
C     2.01102  -0.31763   0.45825
O     2.39519   0.84249   0.52903
C     0.68362  -0.64540  -0.10988
C    -0.38068   0.15204  -0.30912
C    -0.56409   1.60907  -0.02697
F    -1.85445   1.96321  -0.19071
F     0.16293   2.38456  -0.84939
F    -0.22912   1.93700   1.23330
C    -1.51377  -0.78975  -0.78340
C    -1.90254  -1.65883   0.43550
C    -0.85276  -2.46057   0.63017
C     0.15848  -2.06403  -0.46911
O    -0.73480  -1.72511  -1.54208
H     2.24639  -2.11145   1.61805
H     3.10794  -2.11172   0.07184
H     3.74475  -1.12087   1.43217
H    -2.31989  -0.33638  -1.36777
H    -2.82413  -1.55343   1.00599
H    -0.67139  -3.20349   1.40557
H     0.90590  -2.80499  -0.76682
