52
Generated by autodE on: 2022-06-27. E = -1408.565387 Ha
C     2.45114   3.39498   1.46535
N     1.65760   2.18394   1.40949
C     1.89908   1.19913   0.54078
O     2.87950   1.15178  -0.21380
C     0.87948   0.04824   0.54223
C     1.50979  -1.20592   1.20713
O     0.90353  -1.83555   2.07730
N     2.73030  -1.53546   0.77049
C     3.36666  -2.77755   1.16057
O    -0.27003   0.39843   1.29075
C    -1.46103   0.38471   0.50129
C    -2.64038  -0.11334   1.36264
C    -2.46489  -0.06275   2.84685
O    -3.64663  -0.51356   0.81114
C    -1.70541   1.85376   0.07483
O    -0.85698   2.52877  -0.46730
O    -2.87059   2.32149   0.50463
C    -3.18676   3.68282   0.17163
C    -1.13698  -0.55693  -0.68439
C    -1.97354  -0.23470  -1.92149
N    -1.82812  -1.07376  -2.95829
O    -2.71094   0.75573  -1.96622
C    -1.28271  -2.04441  -0.25727
C    -0.32558  -2.94940  -0.97273
C     0.75175  -2.48719  -1.64126
N     1.10641  -1.15569  -1.70500
C     1.88160  -0.67105  -2.83544
C     0.36751  -0.20593  -0.92936
H     2.06620   4.15964   0.76999
H     3.48949   3.16733   1.19318
H     2.42786   3.80352   2.48439
H     0.75863   2.15585   1.88218
H     3.13578  -0.96568   0.03212
H     3.42159  -2.86311   2.25593
H     2.80577  -3.64633   0.77635
H     4.38361  -2.80134   0.75059
H    -3.38824  -0.38370   3.34517
H    -2.19443   0.96011   3.15396
H    -1.62228  -0.71091   3.13336
H    -3.23633   3.79644  -0.92081
H    -4.16548   3.88307   0.62152
H    -2.42796   4.36379   0.58174
H    -1.26636  -1.91846  -2.88190
H    -2.37885  -0.91550  -3.79707
H    -1.12067  -2.11907   0.83000
H    -2.31982  -2.36587  -0.42936
H    -0.50549  -4.02505  -0.93874
H     1.41543  -3.16308  -2.18683
H     1.24134  -0.39664  -3.69427
H     2.47119   0.20553  -2.53833
H     2.57621  -1.45855  -3.16133
H     0.40877   0.75732  -1.44638
