32
Generated by autodE on: 2022-07-27. E = -950.764834 Ha
C     2.28508   2.98150  -1.12887
N     2.00210   1.55890  -1.03528
C     1.21430   1.07678  -0.06313
O     0.78045   1.73944   0.88066
C     0.94672  -0.40331  -0.05711
O    -0.20811  -0.85452   0.27542
C    -1.43680  -0.34627   0.38125
C    -2.36234  -1.26006   1.05035
C    -1.77803  -2.55949   1.55881
O    -3.54929  -0.98256   1.22054
C    -1.77124   0.85152  -0.38534
O    -1.05030   1.29453  -1.27119
O    -2.95548   1.38012  -0.07643
C    -3.38468   2.49161  -0.87712
C     1.98174  -1.48778  -0.02844
O     1.64667  -2.66195   0.15265
N     3.25692  -1.10243  -0.21494
C     4.33888  -2.06717  -0.20031
H     1.37487   3.54808  -1.38540
H     2.66863   3.35577  -0.16978
H     3.04120   3.14208  -1.90646
H     2.17455   0.97237  -1.84849
H    -1.20399  -3.08010   0.77866
H    -2.59738  -3.19414   1.91946
H    -1.07894  -2.35890   2.38694
H    -3.47591   2.19532  -1.93212
H    -4.36296   2.78527  -0.47983
H    -2.67207   3.32467  -0.79169
H     3.47679  -0.11960  -0.34167
H     4.42767  -2.55020   0.78610
H     4.17001  -2.85581  -0.94964
H     5.27692  -1.54835  -0.42935
