32
Generated by autodE on: 2022-06-27. E = -950.768216 Ha
C    -3.24080   3.19510   0.06216
N    -2.11659   2.28129   0.09535
C    -2.29931   0.95423   0.17402
O    -3.42343   0.42476   0.21474
C    -1.06263   0.12208   0.17302
O     0.02010   0.80848   0.00270
C     1.29765   0.51585  -0.17208
C     2.13781   1.72011  -0.12773
C     3.60890   1.60040  -0.41983
O     1.62590   2.80586   0.15396
C     1.65185  -0.80581  -0.72222
O     0.90882  -1.43398  -1.45698
O     2.88387  -1.19149  -0.40359
C     3.35776  -2.40395  -1.01228
C    -1.00677  -1.28634   0.65156
O     0.03782  -1.71930   1.15817
N    -2.14625  -1.98560   0.55206
C    -2.26978  -3.30900   1.12747
H    -2.86105   4.21726  -0.04983
H    -3.83425   3.13440   0.98853
H    -3.90835   2.96625  -0.78312
H    -1.16835   2.64687   0.07898
H     3.78617   1.09552  -1.38120
H     4.10264   0.99696   0.35696
H     4.04438   2.60769  -0.43655
H     4.37793  -2.54724  -0.63930
H     2.71928  -3.24891  -0.71826
H     3.36070  -2.30712  -2.10729
H    -2.97761  -1.44723   0.29374
H    -3.16403  -3.79522   0.71871
H    -2.35770  -3.27176   2.22675
H    -1.38496  -3.91092   0.87760
