52
Generated by autodE on: 2022-06-27. E = -1408.479090 Ha. Imaginary frequency = -342.0 cm-1
C     2.45283   3.59976  -0.12303
N     2.01422   2.21625  -0.14703
C     1.59078   1.63501   0.98458
O     1.72778   2.11947   2.11212
C     1.04560   0.21354   0.89341
C     1.99363  -0.84355   1.35938
O     1.59466  -1.87057   1.92393
N     3.29718  -0.62045   1.08044
C     4.32001  -1.61092   1.34293
O    -0.18112  -0.02063   1.38890
C    -1.37171   0.30512   0.87781
C    -2.41573  -0.67350   1.29510
C    -2.00602  -1.72684   2.29270
O    -3.55906  -0.61624   0.85706
C    -1.67805   1.73403   0.64245
O    -0.84159   2.61860   0.71180
O    -2.95628   1.96448   0.33772
C    -3.31921   3.33136   0.09322
C    -0.77898  -0.16430  -1.37696
C    -0.75780   1.17203  -2.04718
N    -1.94149   1.64564  -2.47502
O     0.29554   1.79896  -2.26367
C    -1.94300  -1.08836  -1.69725
C    -1.74000  -2.43966  -1.06898
C    -0.50582  -2.87918  -0.78725
N     0.63076  -2.09484  -1.02922
C     1.91948  -2.76337  -1.14838
C     0.50577  -0.74553  -1.19294
H     2.85965   3.86508  -1.10732
H     3.23469   3.74280   0.63575
H     1.61699   4.28132   0.11206
H     1.54932   1.90213  -1.00970
H     3.54064   0.18419   0.51124
H     5.30378  -1.12490   1.32196
H     4.16549  -2.06072   2.33328
H     4.31148  -2.42141   0.59354
H    -2.80670  -2.47341   2.36910
H    -1.05367  -2.19954   2.02638
H    -1.86073  -1.24496   3.27478
H    -2.72057   3.74988  -0.72727
H    -4.38009   3.31273  -0.18079
H    -3.17062   3.93440   1.00046
H    -2.81849   1.21129  -2.21323
H    -1.96851   2.57190  -2.89033
H    -2.02865  -1.18159  -2.79965
H    -2.89782  -0.65766  -1.36025
H    -2.60370  -3.06756  -0.84721
H    -0.30259  -3.86513  -0.36469
H     2.71033  -2.01515  -1.26915
H     2.13016  -3.36013  -0.25018
H     1.92810  -3.43016  -2.02616
H     1.37969  -0.22695  -1.57959
