21
Generated by autodE on: 2022-05-30. E = -516.660756 Ha
C    -3.27041   1.47612   0.33344
N    -3.54725   0.09378   0.68666
C    -2.64389  -0.90706   0.71775
O    -2.93235  -2.07414   1.01820
C    -1.28192  -0.53604   0.37175
C    -0.12844  -0.26978   0.08532
C     1.22002   0.05224  -0.25208
C     1.55633   1.36244  -0.65366
C     2.87424   1.67430  -0.98268
C     3.86804   0.69118  -0.91538
C     3.54177  -0.61032  -0.51778
C     2.22687  -0.93387  -0.18728
H    -2.91757   1.56978  -0.70536
H    -2.51420   1.92024   0.99831
H    -4.19910   2.05066   0.43552
H    -4.50068  -0.17282   0.91927
H     0.77635   2.12443  -0.70375
H     3.12885   2.69001  -1.29319
H     4.89985   0.94005  -1.17375
H     4.31745  -1.37746  -0.46520
H     1.96591  -1.94718   0.12322
