26
Generated by autodE on: 2022-06-16. E = -611.389619 Ha
C     3.23618   1.94079   0.51246
C     3.25437   0.44614   0.31511
O     4.30633  -0.19886   0.31016
C     1.98617  -0.25070   0.12667
N     0.84460   0.37567   0.11661
N    -0.14876  -0.48817  -0.07213
C    -1.48130  -0.08156  -0.12776
C    -2.49404  -1.03955  -0.32449
C    -3.83052  -0.63770  -0.38148
C    -4.18095   0.70802  -0.24559
C    -3.17006   1.65792  -0.05009
C    -1.83153   1.27689   0.00968
C     0.31800  -1.88732  -0.20915
C     1.84453  -1.73990  -0.07750
H     4.26510   2.30613   0.62608
H     2.75739   2.43780  -0.34525
H     2.64857   2.20329   1.40590
H    -2.24393  -2.09470  -0.43243
H    -4.60509  -1.39316  -0.53429
H    -5.22777   1.01534  -0.29115
H    -3.42655   2.71474   0.05800
H    -1.04888   2.01885   0.16159
H    -0.12841  -2.50727   0.58199
H     0.00207  -2.29183  -1.18162
H     2.25495  -2.30121   0.77523
H     2.38397  -2.07142  -0.97756
