20
Generated by autodE on: 2022-06-16. E = -532.657953 Ha
C     4.52884   0.01964   0.03561
C     3.20799   0.72921   0.10100
O     3.07464   1.94291   0.23146
C     2.03715  -0.09990  -0.00083
N     1.02419  -0.69689  -0.06514
N     0.00029  -1.39760  -0.14408
C    -1.23679  -0.72447  -0.08405
C    -1.35908   0.67094   0.05386
C    -2.62649   1.25222   0.10332
C    -3.77794   0.46094   0.01775
C    -3.65322  -0.92679  -0.11918
C    -2.39244  -1.51964  -0.17011
H     4.59593  -0.72613   0.84437
H     5.34085   0.75289   0.13025
H     4.61784  -0.52195  -0.92014
H    -0.46685   1.29728   0.12073
H    -2.71456   2.33611   0.21026
H    -4.76659   0.92327   0.05748
H    -4.54599  -1.55300  -0.18651
H    -2.28078  -2.60039  -0.27688
