44
Generated by autodE on: 2022-06-22. E = -1139.063052 Ha
C    -4.05961   0.33389   0.13576
N    -2.83466  -0.38419  -0.17699
C    -2.78688  -1.24766  -1.26034
C    -1.64892  -1.77941  -1.74726
C    -0.29729  -1.39727  -1.21075
C    -0.38328  -0.78154   0.20722
C    -0.44399  -1.86327   1.30116
N    -1.19767  -2.93399   1.02053
O     0.14982  -1.73271   2.37418
C    -1.61573   0.15021   0.32605
C    -1.09399   1.50176  -0.37005
C    -1.58802   2.65346   0.41971
N    -1.95092   3.54791   1.06167
C    -1.60215   1.64909  -1.75143
N    -1.98095   1.75964  -2.84084
N     0.35697   1.37751  -0.38574
C     1.13037   2.61016  -0.35711
C     0.78807   0.23878   0.43545
C     0.86563   0.71776   1.84520
N     0.94176   1.30842   2.84217
C     2.15370  -0.31238   0.01206
C     2.90730  -1.07980   0.91113
C     4.12310  -1.64101   0.51393
C     4.60263  -1.43671  -0.78293
C     3.85810  -0.66567  -1.67947
C     2.64024  -0.10569  -1.28558
H    -4.92541  -0.31063  -0.06917
H    -4.06906   0.60195   1.20259
H    -4.17223   1.26172  -0.45536
H    -3.76383  -1.51049  -1.67142
H    -1.70281  -2.47906  -2.58221
H     0.37914  -2.26416  -1.18462
H     0.17594  -0.67311  -1.89010
H    -1.69197  -3.02200   0.13501
H    -1.28483  -3.66519   1.72017
H    -1.75683   0.41209   1.38394
H     2.19159   2.38067  -0.51103
H     1.02648   3.16003   0.59591
H     0.79789   3.26094  -1.17869
H     2.53708  -1.25094   1.92184
H     4.69757  -2.23912   1.22486
H     5.55524  -1.87288  -1.09229
H     4.22530  -0.49421  -2.69385
H     2.07029   0.49651  -1.99221
