20
Generated by autodE on: 2022-06-22. E = -457.715330 Ha
C    -3.11609   0.44822   0.42420
N    -1.82570  -0.12502   0.07802
C    -1.77279  -1.25644  -0.74579
C    -0.61752  -1.77785  -1.18797
C     0.73327  -1.20308  -0.83930
C     0.57450   0.04784   0.00949
C     1.74398   0.82392   0.45347
N     2.95548   0.34298   0.07693
O     1.65972   1.86672   1.13371
C    -0.65364   0.49264   0.39827
H    -2.97673   1.22500   1.18656
H    -3.60818   0.90113  -0.45358
H    -3.78296  -0.32604   0.83305
H    -2.74391  -1.68460  -1.00075
H    -0.65748  -2.66586  -1.82296
H     1.30331  -0.98299  -1.76465
H     1.34595  -1.96422  -0.31302
H     3.06415  -0.50708  -0.46134
H     3.78798   0.84475   0.36580
H    -0.73841   1.39334   1.00845
