24
Generated by autodE on: 2022-06-22. E = -681.317562 Ha
C    -2.36773   0.58201  -1.68665
N    -1.31642   0.23495  -0.70444
C    -0.09141  -0.09346  -1.12484
C     0.09893  -0.39974  -2.50207
N     0.34173  -0.67073  -3.60923
C     1.11133  -0.14915  -0.27517
C     1.41196   0.90402   0.61075
C     2.59463   0.87662   1.34601
C     3.48349  -0.19625   1.21435
C     3.19267  -1.24025   0.33043
C     2.01772  -1.21486  -0.41960
C    -1.71455   0.27091   0.61861
C    -2.92238   0.90914   0.97097
N    -3.91491   1.42630   1.30638
C    -1.01514  -0.39570   1.64509
N    -0.49812  -0.94739   2.53503
H    -1.96232   0.52840  -2.69965
H    -2.70194   1.60832  -1.48825
H    -3.20736  -0.11406  -1.57192
H     0.72587   1.74628   0.71605
H     2.82486   1.69956   2.02581
H     4.40588  -0.21575   1.79896
H     3.88514  -2.07761   0.22230
H     1.79221  -2.02646  -1.11420
