44
Generated by autodE on: 2022-06-22. E = -1139.014040 Ha. Imaginary frequency = -209.7 cm-1
C    -4.13026   0.48238   0.17752
N    -2.97460  -0.27912  -0.29041
C    -3.03188  -0.88131  -1.56320
C    -1.92757  -1.36135  -2.14770
C    -0.57172  -1.16534  -1.52849
C    -0.66246  -0.99282  -0.02246
C    -0.22110  -2.07293   0.91828
N     0.68978  -2.96097   0.46440
O    -0.68023  -2.14911   2.06752
C    -1.85491  -0.31501   0.42693
C    -0.84434   2.04630  -0.21879
C    -1.27097   2.68908   0.96236
N    -1.68403   3.20784   1.92821
C    -1.60624   2.27341  -1.38127
N    -2.26514   2.42089  -2.33808
N     0.47247   1.54024  -0.39301
C     1.29853   2.18750  -1.42380
C     0.89490   0.47991   0.38552
C     0.60060   0.61222   1.80180
N     0.37672   0.71197   2.93660
C     2.18519  -0.21231   0.10511
C     2.98453  -0.66933   1.17033
C     4.14089  -1.41063   0.93071
C     4.51903  -1.72013  -0.37769
C     3.73314  -1.27492  -1.44530
C     2.58186  -0.52496  -1.21186
H    -5.04664  -0.10013   0.01115
H    -4.01579   0.69438   1.24737
H    -4.20195   1.43155  -0.37346
H    -4.03057  -0.93966  -1.99555
H    -2.00445  -1.85792  -3.11671
H     0.09552  -1.98671  -1.81331
H    -0.13004  -0.25134  -1.97110
H     1.22196  -2.80758  -0.38361
H     1.06082  -3.62778   1.13414
H    -1.95428  -0.01287   1.46955
H     2.36128   2.01653  -1.22335
H     1.10805   3.26787  -1.37535
H     1.05676   1.83203  -2.43607
H     2.69942  -0.45078   2.19952
H     4.74547  -1.75025   1.77422
H     5.42174  -2.30524  -0.56651
H     4.01682  -1.51239  -2.47267
H     1.98813  -0.20776  -2.06477
