29
Generated by autodE on: 2022-10-26. E = -707.974353 Ha
C    -3.01553  -1.04002   1.69332
O    -1.73749  -0.53160   1.32162
C    -1.23578  -0.96348   0.12074
O    -1.85908  -1.77936  -0.56072
C     0.02579  -0.36951  -0.18890
C     0.77828  -0.70568  -1.35488
O     0.49607  -1.53636  -2.21927
O     1.93052   0.03472  -1.44727
C     2.77719  -0.25044  -2.55734
N     0.59037   0.58409   0.72886
C     1.73669   0.13451   1.53779
C     0.05612   1.75855   0.92714
C    -1.07253   2.24318   0.09524
C     0.56433   2.63871   2.01644
H    -2.99387  -2.13527   1.80247
H    -3.78298  -0.77287   0.95061
H    -3.25890  -0.57748   2.65834
H     3.64014   0.42126  -2.46447
H     3.11895  -1.29704  -2.54185
H     2.26164  -0.06085  -3.51146
H     2.50261   0.91742   1.60114
H     1.39000  -0.12360   2.54974
H     2.16162  -0.75559   1.06659
H    -0.96424   3.32533  -0.06795
H    -2.01116   2.09037   0.65582
H    -1.14756   1.70511  -0.85734
H    -0.11683   3.48257   2.17592
H     0.69048   2.08284   2.95715
H     1.55446   3.03914   1.73685
