29
Generated by autodE on: 2022-10-24. E = -707.974364 Ha
C     1.53820   3.45138   0.18481
O     0.71335   2.29105   0.24874
C     1.31119   1.10133  -0.08502
O     2.48464   1.07319  -0.45840
C     0.41227   0.00070   0.05470
C     0.77209  -1.34516  -0.26042
O     1.84603  -1.73902  -0.71885
O    -0.23645  -2.23405   0.00929
C     0.01911  -3.59708  -0.31744
N    -0.90208   0.26427   0.57847
C    -0.99523   0.57957   2.01447
C    -1.98001   0.12357  -0.14417
C    -3.32451   0.23120   0.48838
C    -1.90298  -0.16220  -1.59776
H     0.90601   4.29343   0.49439
H     1.90789   3.62238  -0.83796
H     2.40115   3.36693   0.86348
H     0.87549  -3.99092   0.25121
H     0.22199  -3.71813  -1.39275
H    -0.88936  -4.15101  -0.04863
H    -0.00456   0.88202   2.36379
H    -1.31377  -0.31881   2.56435
H    -1.71040   1.39171   2.19309
H    -3.52007   1.28129   0.76721
H    -4.10510  -0.09286  -0.20959
H    -3.38244  -0.36713   1.40979
H    -2.06983  -1.24280  -1.74994
H    -0.92711   0.10093  -2.02300
H    -2.71637   0.36713  -2.11500
