44
Generated by autodE on: 2022-10-24. E = -988.332417 Ha
C     3.15460   1.80631  -2.97578
O     3.46315   0.56128  -2.35434
C     3.03701   0.42434  -1.04722
F     3.75137   1.34775  -0.25228
C     1.60395   0.67123  -0.81092
C     0.54581   0.44663  -0.26300
C    -0.49408  -0.18755   0.55122
C    -1.36103   0.81426   1.32595
C    -2.44643   0.34371   2.08116
C    -3.23173   1.22685   2.82420
C    -2.94765   2.59739   2.81937
C    -1.87155   3.07329   2.06684
C    -1.08270   2.18612   1.32596
C    -1.39652  -1.03097  -0.36985
C    -1.93543  -0.42658  -1.51695
C    -2.79421  -1.12989  -2.36187
C    -3.13001  -2.45773  -2.07303
C    -2.59953  -3.06689  -0.93444
C    -1.73800  -2.35895  -0.08732
C     0.33828  -1.03580   1.57401
C     1.44395  -1.94069   0.98892
C     2.87519  -1.34913   0.84760
C     3.37921  -0.98549  -0.56077
H     3.49897   1.73626  -4.01561
H     2.06707   1.99436  -2.96343
H     3.67011   2.64082  -2.47505
H    -2.68363  -0.72217   2.08258
H    -4.07291   0.84353   3.40688
H    -3.56469   3.28941   3.39733
H    -1.64134   4.14142   2.05228
H    -0.24228   2.56688   0.74212
H    -1.67969   0.61104  -1.74574
H    -3.20302  -0.64057  -3.24922
H    -3.80065  -3.01255  -2.73336
H    -2.85308  -4.10313  -0.69814
H    -1.33983  -2.85757   0.79604
H    -0.37224  -1.63858   2.15757
H     0.78741  -0.32498   2.28442
H     1.51799  -2.80512   1.66659
H     1.11738  -2.35694   0.02204
H     3.57794  -2.10311   1.23320
H     2.99226  -0.47481   1.50941
H     2.98268  -1.69076  -1.30731
H     4.47818  -1.05164  -0.59967
