73
Generated by autodE on: 2022-10-24. E = -1696.266239 Ha. Imaginary frequency = -292.6 cm-1
C    -6.63552 -16.61489  17.97523
O    -5.33507 -16.12856  17.63496
C    -5.04655 -16.05691  16.31536
O    -5.80418 -16.51993  15.47920
C    -3.72287 -15.44328  16.07779
C    -2.86988 -16.16541  15.12981
O    -3.20966 -17.16279  14.50603
O    -1.63674 -15.63852  14.98893
C    -0.69806 -16.39313  14.21946
C    -3.56169 -13.21686  14.64081
C    -3.43849 -12.48303  15.65096
C    -3.00702 -11.06780  15.85681
F    -3.44342 -10.31478  14.72470
O    -3.65992 -10.50929  16.94084
C    -3.25847  -9.20611  17.34956
C    -1.48001 -10.95201  15.87306
C    -0.74525 -11.86548  14.88406
C    -1.19689 -11.81878  13.40228
C    -1.88268 -13.08397  12.86179
C    -3.39906 -13.30084  13.15526
C    -4.27247 -12.20540  12.48339
C    -5.45922 -11.74893  13.07547
C    -6.28316 -10.82948  12.42296
C    -5.93364 -10.33836  11.16148
C    -4.75519 -10.78710  10.56026
C    -3.93708 -11.71499  11.21271
C    -3.89291 -14.62692  12.53774
C    -3.11643 -15.38508  11.65126
C    -3.62489 -16.55336  11.07263
C    -4.92179 -16.97903  11.36335
C    -5.70703 -16.22390  12.24028
C    -5.19545 -15.06270  12.81776
C    -3.79252 -13.49611  17.45914
C    -5.29099 -13.31784  17.36785
C    -3.18662 -12.77508  18.63939
N    -3.18929 -14.67494  17.10993
C    -1.83490 -14.93747  17.61455
H    -6.75967 -17.65888  17.65181
H    -7.41788 -15.99800  17.50828
H    -6.70795 -16.54983  19.06752
H     0.23644 -15.82017  14.23968
H    -0.54004 -17.38604  14.66671
H    -1.04320 -16.51351  13.18377
H    -2.27463  -9.21891  17.84510
H    -4.01279  -8.86236  18.06977
H    -3.23283  -8.50775  16.49861
H    -1.13612 -11.17696  16.89425
H    -1.23518  -9.89789  15.67058
H    -0.79800 -12.90296  15.24728
H     0.31876 -11.58675  14.94102
H    -0.29810 -11.68103  12.78144
H    -1.82439 -10.93630  13.21423
H    -1.75372 -13.09764  11.77258
H    -1.34646 -13.96359  13.23743
H    -5.73940 -12.10697  14.06604
H    -7.20147 -10.49027  12.90882
H    -6.57359  -9.61368  10.65249
H    -4.46619 -10.41718   9.57331
H    -3.03339 -12.05958  10.70967
H    -2.10135 -15.08268  11.40167
H    -2.99589 -17.13233  10.39188
H    -5.31860 -17.89188  10.91272
H    -6.71980 -16.54877  12.48959
H    -5.81474 -14.49209  13.51068
H    -5.51222 -12.24417  17.37880
H    -5.76021 -13.77911  18.25225
H    -5.73505 -13.74998  16.46517
H    -3.76141 -11.87582  18.87049
H    -3.22732 -13.44382  19.51632
H    -2.13966 -12.48949  18.48050
H    -1.10408 -14.21932  17.21485
H    -1.84057 -14.87099  18.70970
H    -1.53414 -15.95062  17.34129
