58
Generated by autodE on: 2022-12-31. E = -1230.275110 Ha
C     5.00945  -2.74390   3.15732
N     4.81108  -3.86356   2.26106
C     3.66130  -4.10714   1.62004
O     2.61183  -3.48036   1.80853
C     3.68870  -5.31096   0.64406
O     5.07508  -5.53643   0.33693
C     5.39413  -6.51568  -0.63561
C     3.15392  -6.52965   1.42478
C     1.78640  -6.40834   2.09225
C     0.61755  -6.07577   1.16645
C     0.42604  -7.02642  -0.01780
C     1.24449  -6.82763  -1.35153
C     0.20098  -6.88901  -2.49193
C     2.20383  -8.01423  -1.60981
C     2.02153  -5.51135  -1.42235
C     2.96412  -4.91272  -0.63344
C     3.32323  -3.63063  -1.30399
C     4.32840  -2.63998  -0.82740
C     3.90492  -1.42998  -0.25783
C     4.84041  -0.49331   0.18725
C     6.20832  -0.75174   0.05575
C     6.63607  -1.94830  -0.52864
C     5.70170  -2.88963  -0.96676
N     2.65089  -3.40345  -2.38504
C     1.82544  -4.58328  -2.59773
C     2.34265  -5.13732  -3.94727
C     1.62102  -4.65517  -5.16796
O     3.31815  -5.86278  -3.99351
H     4.10846  -2.11882   3.15360
H     5.19792  -3.08302   4.18901
H     5.86636  -2.13860   2.82752
H     5.61461  -4.39357   1.93727
H     5.14628  -7.53592  -0.29900
H     4.88689  -6.32308  -1.59494
H     6.48035  -6.45396  -0.79121
H     3.91191  -6.73538   2.19609
H     3.15735  -7.39816   0.75861
H     1.82734  -5.66308   2.90140
H     1.58257  -7.37818   2.57808
H    -0.30318  -6.11465   1.77196
H     0.69702  -5.03741   0.81308
H    -0.63610  -6.96749  -0.29601
H     0.58267  -8.06302   0.32506
H    -0.51943  -6.05996  -2.43667
H     0.66239  -6.88834  -3.48967
H    -0.36420  -7.82883  -2.40519
H     2.71455  -7.89517  -2.57568
H     1.62263  -8.94917  -1.64261
H     2.97334  -8.12409  -0.83891
H     2.83685  -1.23668  -0.14319
H     4.49947   0.44026   0.64083
H     6.94049  -0.02087   0.40717
H     7.70347  -2.15092  -0.64409
H     6.03666  -3.82092  -1.42394
H     0.77313  -4.28891  -2.72051
H     0.57806  -5.00966  -5.13664
H     1.58465  -3.55408  -5.15478
H     2.11751  -5.01215  -6.07935
