21
Generated by autodE on: 2023-01-01. E = -516.643238 Ha
C    -2.36692  -2.43221  -3.34075
C    -1.50733  -1.67054  -2.35462
O    -0.29316  -1.48460  -2.59207
C    -2.15254  -1.19513  -1.17644
N    -1.39619  -0.52229  -0.30174
C    -0.57542   0.03086   0.31843
C     0.43732   0.68763   1.05135
C     0.15115   1.33411   2.27323
C     1.18148   1.96921   2.96206
C     2.48476   1.97006   2.45073
C     2.76374   1.32870   1.23780
C     1.75173   0.68513   0.53133
H    -3.41312  -2.52581  -3.01815
H    -2.33343  -1.92221  -4.31754
H    -1.94188  -3.43867  -3.48792
H    -3.20477  -1.33798  -0.93795
H    -0.86720   1.33028   2.66414
H     0.96438   2.47007   3.90791
H     3.28496   2.47201   2.99862
H     3.78004   1.32905   0.83823
H     1.95272   0.18031  -0.41504
