37
Generated by autodE on: 2022-12-31. E = -713.512529 Ha
C    -0.73902  -4.07244  -0.29341
N    -0.49125  -2.64541  -0.32688
C     0.58587  -2.08591  -0.89839
O     1.47818  -2.71231  -1.47604
C     0.71137  -0.54764  -0.75591
O     1.21524  -0.00437  -1.96559
C     0.35401  -0.12518  -3.08464
C    -0.51899   0.13569  -0.32104
C    -1.17183   0.93587   0.31756
C    -1.52713   1.98166   1.28275
C    -2.16672   1.34588   2.53144
C    -2.48285   3.02434   0.68226
C    -0.16176   2.65476   1.63764
C     1.03004   1.72476   1.94822
C     1.90294   1.22009   0.76348
C     1.77331  -0.25550   0.33727
H     0.08290  -4.58674  -0.80510
H    -1.68387  -4.31920  -0.80210
H    -0.79735  -4.43786   0.74366
H    -1.17120  -2.02296   0.10154
H     0.84729   0.37914  -3.92704
H     0.17929  -1.18115  -3.35628
H    -0.62097   0.35978  -2.89884
H    -2.39962   2.13071   3.26806
H    -1.49183   0.61611   3.00256
H    -3.10203   0.82767   2.27039
H    -3.45666   2.57178   0.43972
H    -2.06476   3.46207  -0.23696
H    -2.65161   3.83695   1.40616
H    -0.35070   3.30444   2.50882
H     0.11683   3.32244   0.80531
H     0.68930   0.86503   2.54970
H     1.69449   2.29598   2.61543
H     1.75718   1.86440  -0.11908
H     2.95612   1.35738   1.05394
H     2.72609  -0.61816  -0.07852
H     1.54093  -0.88197   1.21262
