58
Generated by autodE on: 2022-12-31. E = -1230.156057 Ha. Imaginary frequency = -263.4 cm-1
C     4.09517  -2.57302   3.49032
N     4.24042  -3.66133   2.54760
C     3.27583  -4.02656   1.69097
O     2.14223  -3.53481   1.67519
C     3.66089  -5.19876   0.75968
O     5.06242  -5.05850   0.51839
C     5.63808  -5.91492  -0.45217
C     3.38873  -6.53542   1.50722
C     2.01458  -6.72503   2.16422
C     0.75226  -6.66477   1.28431
C     0.78470  -7.53861   0.01621
C     0.90943  -6.76587  -1.33758
C    -0.42766  -6.08397  -1.67690
C     1.27005  -7.77407  -2.43913
C     1.98083  -5.75859  -1.14772
C     2.85114  -5.17729  -0.48730
C     3.47749  -3.23322  -1.57135
C     4.57788  -2.45824  -1.05698
C     4.40170  -1.57421   0.02125
C     5.49225  -0.84471   0.49494
C     6.75889  -1.01877  -0.07211
C     6.93480  -1.91258  -1.13590
C     5.85014  -2.62672  -1.63945
N     2.76788  -3.32454  -2.53752
C     2.06277  -4.11043  -3.33128
C     2.79639  -5.08383  -4.12474
C     2.03804  -5.73330  -5.25784
O     3.99624  -5.33298  -3.93707
H     3.03238  -2.43656   3.72570
H     4.64031  -2.80519   4.41606
H     4.48772  -1.62665   3.08256
H     5.16289  -4.04866   2.37308
H     5.61772  -6.97326  -0.14141
H     5.13097  -5.82040  -1.42626
H     6.68493  -5.60102  -0.56412
H     4.15946  -6.61478   2.29051
H     3.57296  -7.34942   0.79121
H     1.89879  -5.99820   2.98536
H     2.04929  -7.71614   2.64871
H    -0.09302  -6.97558   1.91910
H     0.54839  -5.61888   1.01317
H    -0.13034  -8.14884  -0.05316
H     1.62139  -8.25341   0.07674
H    -0.72922  -5.37864  -0.88761
H    -0.35215  -5.52653  -2.62174
H    -1.21903  -6.84288  -1.78241
H     1.25057  -7.30829  -3.43117
H     0.53830  -8.59758  -2.43914
H     2.27046  -8.20215  -2.27434
H     3.41636  -1.46535   0.47487
H     5.35334  -0.14396   1.32092
H     7.61166  -0.45594   0.31387
H     7.92291  -2.04703  -1.58152
H     5.96948  -3.32245  -2.47146
H     1.04499  -3.81729  -3.58905
H     0.95254  -5.74625  -5.08984
H     2.23135  -5.14438  -6.17174
H     2.41267  -6.75181  -5.42901
