51
Generated by autodE on: 2022-06-05. E = -1374.985610 Ha
C     3.43710  -2.08288   1.89607
N     2.71845  -1.73752   0.68602
C     1.40159  -1.98488   0.54040
O     0.75974  -2.69084   1.33421
C     0.73852  -1.41562  -0.65248
C     0.79626  -0.18436  -1.21391
C     1.56248   0.99987  -0.80381
C     2.12329   1.85255  -1.77277
C     2.89816   2.94849  -1.38967
C     3.11269   3.21914  -0.03451
C     2.53689   2.39412   0.93777
C     1.76603   1.29611   0.55848
C    -0.19933  -0.24979  -2.37750
O    -0.12185  -1.63559  -2.75627
C    -0.31906  -2.17534  -1.44326
C    -1.73384  -1.57507  -1.09451
C    -1.94778  -1.13078   0.32646
C    -1.99813  -2.07992   1.48741
O    -1.96218  -1.75301   2.65409
O    -2.13197  -3.33562   1.05837
C    -2.11925  -4.36306   2.05821
N    -2.09525   0.12427   0.52062
C    -2.14966   0.80302  -0.78487
C    -3.62568   1.18095  -1.03649
C    -1.38586   2.11893  -0.82606
O    -1.07848   2.64969  -1.87541
O    -1.17159   2.65711   0.36788
C    -0.55071   3.95386   0.39138
C    -1.67515  -0.22275  -1.84540
H     4.51452  -2.09482   1.68746
H     3.24219  -1.35875   2.70641
H     3.12985  -3.07811   2.24365
H     3.15300  -1.08666   0.03998
H     1.96365   1.64432  -2.83237
H     3.33599   3.59502  -2.15357
H     3.71528   4.08009   0.26386
H     2.67894   2.61454   1.99810
H     1.29296   0.67671   1.32182
H    -0.00757   0.41098  -3.22712
H    -0.25753  -3.26736  -1.43394
H    -2.52214  -2.25689  -1.43901
H    -2.94078  -4.21630   2.77386
H    -2.24603  -5.31014   1.52173
H    -1.15830  -4.35193   2.59223
H    -3.99877   1.82871  -0.23040
H    -4.23560   0.26667  -1.07191
H    -3.71464   1.70948  -1.99590
H     0.37238   3.95082  -0.20063
H    -0.32862   4.16195   1.44377
H    -1.24553   4.70672  -0.00870
H    -2.32871  -0.20652  -2.72404
