30
Generated by autodE on: 2022-06-05. E = -746.807793 Ha
C     1.32931   1.96777  -1.66547
N     0.03073   2.45791  -1.24771
C    -1.04321   1.74431  -0.85364
O    -2.12554   2.28967  -0.57091
C    -0.97252   0.27082  -0.79615
C    -0.16272  -0.61147  -0.17098
C     1.03078  -0.43370   0.65477
C     1.21300   0.72817   1.43154
C     2.35935   0.89118   2.20879
C     3.34331  -0.10356   2.23075
C     3.16752  -1.26826   1.47667
C     2.01913  -1.43684   0.70185
C    -0.90666  -1.97099  -0.32723
C    -2.14196  -1.89006   0.59706
C    -2.95098  -1.00643   0.00453
C    -2.19036  -0.56860  -1.26524
O    -1.52102  -1.79059  -1.61176
H     1.25242   0.92358  -1.99103
H     1.68961   2.56946  -2.51235
H     2.07558   2.02597  -0.85704
H    -0.10790   3.46590  -1.22926
H     0.43921   1.49733   1.44134
H     2.48205   1.79646   2.80791
H     4.24073   0.02561   2.84020
H     3.92939  -2.05114   1.49251
H     1.89470  -2.34618   0.11079
H    -0.29656  -2.87838  -0.27922
H    -2.24679  -2.40824   1.54948
H    -3.90511  -0.59727   0.33410
H    -2.77532  -0.15865  -2.09487
