21
Generated by autodE on: 2022-06-05. E = -628.048822 Ha
C     4.37445   0.56648  -0.47190
O     3.20657  -0.10729   0.03341
C     2.13077   0.64920   0.24521
O     2.05773   1.84785   0.06046
C     1.04214  -0.12534   0.83821
N     0.06571  -0.65927   0.36689
C    -1.01874  -1.22491  -0.02970
C    -1.08016  -2.68375  -0.36644
C    -2.23806  -0.40313  -0.15528
O    -3.30560  -0.86066  -0.52638
O    -2.04872   0.87892   0.18037
C    -3.19127   1.74082   0.09333
H     4.69846   1.34682   0.23128
H     5.14587  -0.20595  -0.56605
H     4.16383   1.01594  -1.45267
H    -1.83752  -3.18704   0.25582
H    -1.37201  -2.82355  -1.41975
H    -0.10565  -3.16108  -0.20111
H    -3.56905   1.77722  -0.93892
H    -2.84501   2.73311   0.40464
H    -3.99100   1.39067   0.76228
