41
Generated by autodE on: 2022-10-06. E = -874.207650 Ha
C     2.79864   3.12349  -0.90898
N     2.03871   1.88382  -0.94137
C     1.29802   1.49474   0.09377
O     1.18971   2.11918   1.15120
C     0.52304   0.16140  -0.07753
C     1.52613  -1.01823  -0.08104
O     1.93368  -1.47132   0.98966
N     1.90249  -1.41959  -1.29470
C     2.82480  -2.52130  -1.49558
N    -0.37061   0.16529  -1.20993
C    -1.60054  -0.54113  -0.77989
C    -2.76113  -0.16981  -1.69461
C    -1.38465  -2.05811  -0.80538
C    -1.78749  -0.00870   0.68868
N    -2.16288   1.38754   0.65221
N    -2.52693  -0.90923   1.52202
C    -3.03630  -0.36935   2.77786
N    -0.32824   0.01339   1.15759
H     2.13284   3.98531  -0.75228
H     3.54046   3.10586  -0.09619
H     3.31803   3.24044  -1.86680
H     2.08902   1.29922  -1.76985
H     1.36047  -1.05899  -2.07751
H     3.24175  -2.46161  -2.50856
H     2.31994  -3.49406  -1.37434
H     3.64241  -2.46111  -0.76473
H    -0.62675   1.12903  -1.42537
H    -2.85983   0.91917  -1.80756
H    -3.70327  -0.57188  -1.29342
H    -2.59983  -0.60618  -2.69064
H    -1.05122  -2.35422  -1.80932
H    -0.64304  -2.40857  -0.07437
H    -2.32540  -2.58174  -0.58914
H    -2.15978   1.77876   1.59580
H    -3.12133   1.46508   0.31084
H    -3.28000  -1.32506   0.97679
H    -3.54099  -1.17383   3.33072
H    -2.20405  -0.01156   3.40382
H    -3.75279   0.46340   2.65588
H    -0.07474  -0.84477   1.66637
H    -0.10668   0.82680   1.76474
