28
Generated by autodE on: 2022-10-13. E = -628.920200 Ha
C     2.21800   3.24782   0.57164
N     1.65747   1.91729   0.61297
C     0.42976   1.64552   0.11159
O    -0.31889   2.56359  -0.31369
C    -0.01136   0.25496   0.07590
N    -1.30825   0.15855  -0.44818
C    -2.28158  -0.68994  -0.24244
C    -3.55426  -0.51367  -0.99652
C    -2.15818  -1.79065   0.74522
C     0.90951  -0.85866   0.15649
O     2.01794  -0.76814   0.74990
N     0.59446  -2.02710  -0.47554
C     1.51765  -3.14199  -0.50279
H     1.54472   3.98000   1.04499
H     3.17041   3.25166   1.11786
H     2.40987   3.59587  -0.45933
H     2.21851   1.10145   0.86222
H    -1.54486   0.99906  -0.99309
H    -3.52925   0.36907  -1.65114
H    -4.39824  -0.42839  -0.29241
H    -3.74809  -1.40668  -1.61530
H    -1.76828  -2.71305   0.28344
H    -3.15033  -2.02125   1.15883
H    -1.46314  -1.51129   1.55280
H    -0.18154  -2.04397  -1.12564
H     1.82849  -3.41719   0.51635
H     2.43194  -2.92209  -1.08242
H     1.01633  -4.00594  -0.95868
