13
Generated by autodE on: 2022-10-06. E = -245.298493 Ha
C     1.95174   0.31816   0.03238
N     0.77940  -0.51888  -0.15815
C    -0.47518  -0.08679  -0.01102
N    -0.71701   1.19033   0.29167
N    -1.49467  -0.93747  -0.16265
H     1.95503   1.17074  -0.66540
H     2.01149   0.70196   1.06347
H     2.84258  -0.28877  -0.16393
H     0.91188  -1.49959  -0.38376
H    -1.67157   1.51704   0.39560
H     0.03621   1.86129   0.38390
H    -2.45209  -0.61227  -0.08772
H    -1.32486  -1.91068  -0.39186
