8
Generated by autodE on: 2022-10-21. E = -191.933354 Ha
C     1.82777   0.31087  -0.00736
C     0.68541  -0.09541  -0.05946
O    -0.51715  -0.57197  -0.12854
C    -1.59371   0.34918   0.17335
H     2.84115   0.66584   0.03907
H    -2.52231  -0.22138   0.05721
H    -1.49444   0.71331   1.20650
H    -1.57185   1.19299  -0.53192
