22
Generated by autodE on: 2022-10-26. E = -550.237674 Ha
C     0.55981  -1.52710  -2.43550
N    -0.00187  -0.55590  -1.77467
C    -0.07077  -0.13112  -0.46958
C    -0.99925   1.00396  -0.35888
O    -1.54164   1.46581  -1.39466
N    -1.24272   1.51929   0.85935
C    -2.14311   2.63374   1.05196
C     0.69139  -0.66818   0.64267
O     0.42356  -0.37188   1.83250
N     1.72941  -1.51428   0.37990
C     2.58684  -1.97827   1.45417
H     1.15762  -2.29181  -1.94434
H     0.36850  -1.57835  -3.50714
H    -0.59937   0.09513  -2.32175
H    -0.78560   1.04543   1.64008
H    -1.82523   3.51745   0.47495
H    -3.17334   2.38870   0.74266
H    -2.15519   2.90019   2.11643
H     2.13479  -1.50478  -0.54941
H     3.15282  -1.15703   1.92750
H     1.99043  -2.46845   2.23660
H     3.29873  -2.70780   1.04713
