30
Generated by autodE on: 2022-10-21. E = -742.162961 Ha. Imaginary frequency = -396.4 cm-1
C    -1.54976   3.16173   1.04319
N    -0.63437   2.06484   0.82102
C    -0.34406   1.62111  -0.41399
O    -0.77633   2.18202  -1.44581
C     0.49492   0.40669  -0.53241
C     1.26516  -0.13028   0.59571
O     0.91285   0.06456   1.78096
N     2.38864  -0.84187   0.33325
C     3.21297  -1.36703   1.40353
N     0.73252   0.09603  -1.84621
C     0.95505  -1.10098  -2.36569
C    -0.92673  -2.07486  -1.42380
C    -1.15811  -1.40829  -0.40508
O    -1.71461  -1.01178   0.71358
C    -2.75039  -1.88251   1.21547
H    -1.24348   4.05683   0.48000
H    -2.57952   2.90915   0.73533
H    -1.55791   3.40787   2.11264
H    -0.28962   1.48547   1.58860
H     2.76971  -0.84515  -0.60562
H     3.69674  -0.56632   1.98871
H     2.60939  -1.97176   2.09635
H     3.99298  -2.00427   0.96808
H     0.25559   0.78013  -2.44823
H     1.51202  -1.85348  -1.81589
H     0.89653  -1.18648  -3.45181
H    -1.00922  -2.81584  -2.20119
H    -3.11063  -1.42807   2.14667
H    -2.33672  -2.88312   1.41397
H    -3.56962  -1.95445   0.48366
