15
Generated by autodE on: 2022-05-28. E = -492.081481 Ha
N     1.81076   2.68980  -0.35064
C     1.09402   1.77228  -0.32016
C     0.20188   0.68141  -0.29543
C     0.45097  -0.62266  -0.03802
C     1.67210  -1.25355   0.27503
N     2.66831  -1.79914   0.53265
C    -0.95446  -1.30276  -0.08342
C    -1.72123  -0.79337   1.15225
C    -1.96705   0.49456   0.89774
C    -1.34647   0.75068  -0.48920
O    -1.54782  -0.51686  -1.12125
H    -0.95923  -2.37483  -0.29948
H    -1.93327  -1.38712   2.04003
H    -2.43758   1.25602   1.51776
H    -1.71649   1.59136  -1.08287
