25
Generated by autodE on: 2022-05-28. E = -884.903608 Ha. Imaginary frequency = -356.9 cm-1
C     3.29907  -2.54371  -0.21127
O     2.31549  -1.51052  -0.40120
C     2.43630  -0.43370   0.35959
O     3.29344  -0.21779   1.18259
N     1.38019   0.43641   0.03006
N     1.14444   1.47400   0.70747
N     0.25484   2.18113   0.93539
C    -1.32158   0.98724  -0.03088
C    -1.87664   2.02043  -0.82525
N    -2.34732   2.87963  -1.45418
C    -1.99332   0.41971   1.26183
C    -3.05192  -0.58778   0.78960
C    -2.35712  -1.62776   0.31561
C    -0.88436  -1.24512   0.51292
O    -0.94266  -0.44815   1.69481
C    -0.58964  -0.11131  -0.52560
C    -0.33084  -0.36925  -1.90116
N    -0.14074  -0.61072  -3.02201
H     4.30265  -2.15436  -0.43205
H     3.26022  -2.91763   0.82127
H     3.03243  -3.33814  -0.91652
H    -2.26902   1.16136   2.01651
H    -4.12674  -0.41298   0.79984
H    -2.70359  -2.53738  -0.17230
H    -0.13388  -2.03821   0.56676
