37
Generated by autodE on: 2022-06-18. E = -1050.020702 Ha
C    -1.98730   2.99865   0.72550
O    -1.71238   1.58994   0.63518
C    -0.49222   1.23681   0.25870
O     0.38574   2.03067  -0.01812
C    -0.26695  -0.28497   0.30656
C    -1.41805  -1.09179  -0.27441
C    -1.66876  -2.39160   0.18722
C    -2.68878  -3.16152  -0.37788
C    -3.46601  -2.64582  -1.41825
C    -3.21418  -1.35394  -1.88980
C    -2.19875  -0.58195  -1.32182
C     1.11054  -0.60981  -0.33913
C     1.40955   0.05129  -1.67048
O     0.63924  -0.05183  -2.61310
C     2.69519   0.76790  -1.82959
C     3.45567   1.13199  -0.78144
C     3.03666   0.84905   0.60724
O     3.45494   1.49870   1.55029
C     2.10307  -0.32915   0.80982
O     1.31835  -0.09555   1.97024
N     0.03144  -0.70285   1.70004
C    -0.85568  -0.27252   2.76403
H    -1.32191   3.46766   1.46367
H    -3.03217   3.08006   1.04433
H    -1.84641   3.47429  -0.25512
H    -1.06164  -2.80074   0.99424
H    -2.87355  -4.17059  -0.00193
H    -4.26338  -3.24733  -1.86093
H    -3.81193  -0.94105  -2.70566
H    -2.01371   0.42044  -1.70937
H     1.10814  -1.68780  -0.54943
H     2.95536   1.04734  -2.85386
H     4.35984   1.73379  -0.90539
H     2.75668  -1.21072   0.95045
H    -1.86935  -0.62141   2.52854
H    -0.87099   0.82177   2.90656
H    -0.52976  -0.74881   3.69951
