25
Generated by autodE on: 2022-07-27. E = -668.364627 Ha
C     0.92785   2.34110  -2.47609
O     0.53136   1.31542  -1.55852
C     1.01903   1.40800  -0.30911
O     1.77440   2.29765   0.03396
C     0.49188   0.30753   0.53224
C    -0.53957  -0.61204  -0.01062
C    -0.23797  -1.96193  -0.25113
C    -1.21085  -2.82011  -0.76887
C    -2.49139  -2.33754  -1.05454
C    -2.79634  -0.99140  -0.82403
C    -1.82569  -0.13165  -0.30828
N     0.96177   0.14767   1.76710
C     0.39352  -0.89062   2.66267
O     1.90001   0.81294   2.28100
H     0.42693   2.10774  -3.42278
H     0.61124   3.32953  -2.11220
H     2.01922   2.33741  -2.61280
H     0.76403  -2.33722  -0.03250
H    -0.96575  -3.86870  -0.95248
H    -3.25178  -3.00926  -1.45973
H    -3.79554  -0.60992  -1.04642
H    -2.06033   0.91985  -0.12995
H     1.02610  -1.78594   2.60106
H     0.44562  -0.46992   3.67261
H    -0.63642  -1.13479   2.38952
