30
Generated by autodE on: 2022-06-17. E = -875.292287 Ha
C     3.35899   1.34192   0.82404
O     2.55250   0.29463   0.25772
C     1.49806   0.67116  -0.45375
O     1.19583   1.83261  -0.64572
C     0.71925  -0.50364  -1.06379
C     1.23685  -0.70470  -2.48603
N     0.87943  -1.71760  -0.26152
C    -0.00253  -1.52626   0.89712
C    -0.40881  -2.79207   1.49817
N    -0.74499  -3.79435   1.97586
C    -1.21307  -0.64744   0.42531
C    -1.52156   0.46531   1.40375
O    -1.42998   0.28441   2.60988
C    -1.95961   1.76555   0.85798
C    -1.83923   2.07741  -0.44597
C    -1.28735   1.14456  -1.45458
O    -1.25569   1.46040  -2.63671
C    -0.82168  -0.22265  -1.00230
H     4.15862   0.83802   1.37835
H     3.78167   1.97068   0.02769
H     2.75471   1.96157   1.50160
H     0.72064  -1.56111  -2.94591
H     1.03944   0.18975  -3.09090
H     2.31862  -0.90167  -2.47636
H     0.52356  -2.49444  -0.82220
H     0.54276  -0.97190   1.67797
H    -2.13416  -1.25038   0.38743
H    -2.34190   2.48576   1.58598
H    -2.13756   3.05767  -0.82691
H    -1.26243  -0.93026  -1.71826
