30
Generated by autodE on: 2022-06-17. E = -875.241675 Ha. Imaginary frequency = -262.8 cm-1
C     2.41813   1.90597   0.82484
O     1.81475   0.67387   0.39917
C     1.63612   0.50973  -0.91462
O     1.97310   1.33557  -1.74483
C     1.00925  -0.77621  -1.30182
C     1.09302  -1.12335  -2.75232
N     0.76801  -1.76660  -0.42037
C     0.27173  -1.59245   0.84057
C    -0.10810  -2.74890   1.57634
N    -0.47149  -3.66730   2.19348
C    -1.59073  -0.60835   0.25364
C    -1.73893   0.19996   1.48523
O    -2.14535  -0.28623   2.53949
C    -1.35948   1.63083   1.40224
C    -1.06765   2.21008   0.22374
C    -1.09080   1.44971  -1.05576
O    -0.94400   2.04431  -2.13074
C    -1.28891   0.00954  -0.96898
H     2.41404   1.87705   1.92008
H     3.44803   1.97366   0.44663
H     1.83429   2.76271   0.46228
H     0.53863  -2.04644  -2.97059
H     0.66605  -0.30091  -3.34349
H     2.14217  -1.24591  -3.07008
H     0.52856  -2.65860  -0.85886
H     0.66440  -0.76167   1.42185
H    -2.13127  -1.55658   0.25658
H    -1.36395   2.18939   2.34143
H    -0.81795   3.27115   0.14595
H    -1.48715  -0.50474  -1.90962
