24
Generated by autodE on: 2023-01-01. E = -717.728338 Ha
C    -0.96919   0.30540  -3.99372
N    -0.31139  -0.37627  -2.89332
C     0.16287   0.29867  -1.83744
O     0.08341   1.51699  -1.69943
C     0.88793  -0.55715  -0.81835
C     1.97323  -1.34548  -1.26075
N     2.85377  -1.96553  -1.70918
N     0.53907  -0.51296   0.46588
C     1.38168  -1.22242   1.46490
N    -0.57786   0.09579   0.78084
C    -0.76959   0.49714   2.08270
O     0.05786   0.65285   2.96918
O    -2.07586   0.78098   2.24407
C    -2.45538   1.29635   3.52322
H    -1.90582   0.78142  -3.66330
H    -0.31683   1.08727  -4.41113
H    -1.19805  -0.42673  -4.77662
H    -0.21933  -1.38791  -2.91778
H     2.03855  -0.49379   1.95129
H     1.97073  -1.98542   0.94847
H     0.72531  -1.68916   2.20461
H    -1.92734   2.23781   3.73673
H    -3.53572   1.47616   3.46815
H    -2.23485   0.56958   4.31929
