24
Generated by autodE on: 2022-12-31. E = -717.730461 Ha
C    -2.23385   2.56783   0.05273
N    -1.84242   1.24603  -0.40035
C    -1.01133   0.47877   0.31922
O    -0.55844   0.80504   1.42028
C    -0.70316  -0.86751  -0.26651
C    -1.70479  -1.52998  -1.01386
N    -2.55726  -2.02417  -1.63811
N     0.42060  -1.54217   0.02807
C     0.46516  -2.99008  -0.29295
N     1.50043  -1.11083   0.60786
C     1.83852   0.23383   0.59940
O     2.51144   0.72996   1.48220
O     1.50666   0.86966  -0.53464
C     1.80512   2.27068  -0.59661
H    -3.06612   2.92278  -0.56667
H    -1.39751   3.28186  -0.02920
H    -2.55563   2.53275   1.10279
H    -2.11719   0.94685  -1.33159
H    -0.41929  -3.48801   0.12107
H     1.38238  -3.38679   0.14840
H     0.48949  -3.10391  -1.38483
H     2.89138   2.43601  -0.55891
H     1.40093   2.62251  -1.55277
H     1.32203   2.79740   0.23867
