38
Generated by autodE on: 2022-12-31. E = -1302.598633 Ha
C     0.10714   0.72760   4.32300
N     0.20579   0.44920   2.90191
C     0.76003   1.32046   2.05303
O     1.22992   2.40604   2.42257
C     0.75532   0.94286   0.56001
C     2.18208   0.94991  -0.05893
O     2.48853   0.13847  -0.93714
N     3.00321   1.91391   0.37068
C     4.33767   2.07418  -0.17228
C     0.10998  -0.32851   0.26806
C    -0.62236  -1.14913  -0.23913
C    -1.66097  -1.57317  -1.17232
Cl   -1.19263  -3.28228  -1.84895
O    -2.92264  -1.63900  -0.62790
C    -3.05885  -2.33860   0.60580
C    -1.66980  -0.59084  -2.35105
C    -1.78599   0.89505  -1.94800
C    -0.48285   1.69174  -1.65801
C    -0.13207   2.01278  -0.19138
H    -0.52130   1.61195   4.51253
H     1.10136   0.91628   4.75569
H    -0.34006  -0.14003   4.82215
H    -0.18212  -0.41610   2.53716
H     2.66626   2.50959   1.12773
H     4.30510   2.26432  -1.25668
H     4.82127   2.92560   0.32171
H     4.94903   1.17286  -0.00575
H    -4.12382  -2.30668   0.86776
H    -2.46967  -1.85525   1.40282
H    -2.73590  -3.38602   0.49444
H    -2.52698  -0.87962  -2.97843
H    -0.75598  -0.75421  -2.93897
H    -2.48574   0.99024  -1.10138
H    -2.28363   1.38982  -2.79577
H     0.37434   1.20531  -2.15113
H    -0.59015   2.66865  -2.15359
H     0.41001   2.96674  -0.13196
H    -1.05782   2.13128   0.39327
