62
Generated by autodE on: 2022-12-31. E = -2020.331255 Ha. Imaginary frequency = -170.1 cm-1
C   -44.32856   4.09617   2.22714
N   -43.29272   3.08608   2.31641
C   -43.42349   2.04200   3.13754
O   -44.47741   1.79160   3.74289
C   -42.22733   1.06211   3.23027
C   -41.83365   0.74312   4.69700
O   -40.64518   0.66129   5.02548
N   -42.84970   0.48639   5.53031
C   -42.62563   0.29936   6.94988
C   -42.70047  -0.25420   2.51308
C   -41.81046  -1.49761   2.62624
C   -40.35413  -1.44365   2.12984
C   -40.13894  -0.83904   0.72425
C   -39.40682   0.50760   0.80622
Cl  -39.41125   1.23041  -0.96841
O   -38.11178   0.44656   1.26180
C   -37.21128  -0.46864   0.64405
C   -40.14135   1.43896   1.66819
C   -41.03864   1.53672   2.51264
N   -40.58073   3.56187   3.46302
C   -41.02380   3.95372   4.70253
O   -42.06315   3.53904   5.19001
O   -40.26927   4.90945   5.27148
C   -40.72671   5.41130   6.53534
N   -39.31366   3.62531   3.14243
C   -38.27451   3.15872   4.09039
C   -39.03106   3.56639   1.82263
C   -37.66391   3.35297   1.46690
N   -36.55958   3.22642   1.12435
C   -39.93065   4.19634   0.77631
O   -41.12897   4.41761   0.95903
N   -39.31617   4.51295  -0.37675
C   -40.09184   4.90780  -1.53695
H   -45.29780   3.64574   1.96792
H   -44.44573   4.63503   3.18278
H   -44.04915   4.81528   1.44701
H   -42.36478   3.35197   1.97229
H   -43.77477   0.75542   5.18806
H   -42.28807   1.23373   7.43092
H   -41.85793  -0.46855   7.12104
H   -43.56168  -0.02375   7.42267
H   -42.86274   0.00949   1.45673
H   -43.68701  -0.50233   2.92988
H   -41.79605  -1.83814   3.67467
H   -42.33982  -2.28646   2.06500
H   -39.97166  -2.47595   2.13376
H   -39.73875  -0.90049   2.86153
H   -39.55955  -1.51342   0.07905
H   -41.09498  -0.66440   0.21326
H   -37.42643  -1.50846   0.93491
H   -37.24899  -0.37173  -0.45185
H   -36.20984  -0.19184   0.99789
H   -40.00782   6.18569   6.82705
H   -41.73233   5.84416   6.43605
H   -40.74439   4.60712   7.28506
H   -37.38286   3.78972   4.00268
H   -38.03529   2.11597   3.83561
H   -38.66551   3.21018   5.10733
H   -38.35707   4.22034  -0.53173
H   -40.75246   4.08804  -1.86568
H   -40.71475   5.78426  -1.30944
H   -39.40316   5.16134  -2.35150
