41
Generated by autodE on: 2022-07-27. E = -941.101577 Ha
C     0.85149  -2.52791   0.86756
C     1.99915  -1.52786   0.84694
O     2.93887  -1.69394   1.65298
C     1.95371  -0.45044  -0.09664
C     2.96429   0.52593  -0.34723
C     4.27256   0.47404   0.40890
O     2.77794   1.45297  -1.17293
N     0.77572  -0.35143  -0.93437
C     0.97574  -0.76795  -2.32922
C    -0.38909   0.01458  -0.45219
C    -1.64864  -0.23621  -1.17515
C    -1.92684  -1.49737  -1.73445
C    -3.15333  -1.72885  -2.35514
C    -4.10186  -0.70422  -2.44186
C    -3.83188   0.55100  -1.88600
C    -2.61974   0.78085  -1.23767
C    -0.48542   0.69251   0.85650
C     0.34560   1.78768   1.15832
C     0.20060   2.45320   2.37306
C    -0.75537   2.02480   3.30309
C    -1.58665   0.94189   3.00448
C    -1.46644   0.28729   1.77741
H     0.47741  -2.77777  -0.13537
H     0.00461  -2.13076   1.45093
H     1.20383  -3.44142   1.36514
H     4.75937  -0.50751   0.31892
H     4.10276   0.63916   1.48401
H     4.92973   1.26217   0.01507
H     1.91746  -0.32016  -2.66595
H     0.15640  -0.41906  -2.96629
H     1.05734  -1.86241  -2.38104
H    -1.19724  -2.30346  -1.65530
H    -3.37036  -2.71457  -2.77177
H    -5.05797  -0.88717  -2.93752
H    -4.57268   1.35067  -1.94996
H    -2.41134   1.75399  -0.79030
H     1.07745   2.12725   0.42528
H     0.83526   3.31344   2.59643
H    -0.85803   2.54479   4.25829
H    -2.33725   0.60944   3.72450
H    -2.12106  -0.55182   1.53637
