55
Generated by autodE on: 2022-06-11. E = -1800.473616 Ha. Imaginary frequency = -258.3 cm-1
C     1.12711  -2.22508   2.23700
C     1.85207  -1.00270   1.71789
O     2.58033  -0.36027   2.45703
C     1.80403  -0.78978   0.22490
C     3.13427  -0.89927  -0.44620
C     4.37408  -0.62482   0.37810
O     3.29199  -1.15246  -1.64117
N     0.59764  -0.99201  -0.41067
C     0.55403  -1.71149  -1.70361
C    -0.53424  -0.30799   0.01081
C    -1.81992  -0.61075  -0.72334
C    -2.25088  -1.93989  -0.89909
C    -3.48526  -2.22331  -1.48294
C    -4.32418  -1.18461  -1.89791
C    -3.92250   0.13751  -1.69945
C    -2.68932   0.42131  -1.10632
C    -0.81180  -0.05008   1.48863
C    -0.12330   0.85089   2.31668
C    -0.44234   0.99579   3.66738
C    -1.47013   0.24636   4.23862
C    -2.17827  -0.64952   3.43382
C    -1.85872  -0.78836   2.08412
C     0.26242   1.70991  -0.63343
Cl   -0.72109   2.93222   0.17968
C     0.17618   1.74857  -2.18902
C     0.70832   3.12818  -2.61703
C     2.02467   3.07595  -2.38473
C     2.27878   1.66586  -1.83204
O     1.27957   0.90699  -2.51708
C     1.66721   1.65749  -0.39886
C     2.34715   2.30177   0.65351
N     2.94743   2.84437   1.49502
H     0.34086  -2.59600   1.57202
H     0.72242  -2.01918   3.23728
H     1.89395  -3.01372   2.33434
H     4.49903  -1.36933   1.17798
H     4.33895   0.36178   0.85813
H     5.23168  -0.67871  -0.30402
H     1.53219  -1.66003  -2.17219
H    -0.19436  -1.27288  -2.36426
H     0.30197  -2.76186  -1.50359
H    -1.62922  -2.76554  -0.55328
H    -3.79479  -3.26370  -1.60544
H    -5.28921  -1.40579  -2.35949
H    -4.57349   0.96182  -1.99933
H    -2.41830   1.45940  -0.93058
H     0.69226   1.44974   1.93893
H     0.12708   1.70608   4.27056
H    -1.72017   0.36116   5.29573
H    -2.99005  -1.24752   3.85399
H    -2.43109  -1.49815   1.49141
H    -0.75768   1.39779  -2.63616
H     0.09364   3.95754  -2.96365
H     2.78148   3.85357  -2.48010
H     3.27886   1.24492  -1.95309
