48
Generated by autodE on: 2022-10-21. E = -1281.423371 Ha
C    -0.89882   5.14162   0.03804
O    -0.99645   3.70893   0.09339
C     0.11112   3.04787   0.40634
O     1.18153   3.57489   0.64563
C    -0.06310   1.55903   0.43965
N    -1.18468   0.99052   0.21507
C    -1.02161  -0.46938   0.37103
C    -1.82678  -0.86876   1.62592
O    -1.39329  -1.53556   2.54072
O    -3.07580  -0.41734   1.56935
C    -3.94214  -0.76436   2.66178
C    -1.61353  -1.22411  -0.81569
C    -1.89196  -2.59450  -0.69963
C    -2.36953  -3.31490  -1.79589
C    -2.57131  -2.67428  -3.02319
C    -2.29179  -1.31061  -3.14352
C    -1.81398  -0.58831  -2.04551
C     0.50223  -0.74179   0.59115
C     1.29654  -1.29740  -0.63131
O     1.42312  -0.11669  -1.45221
C     2.13181   0.66691  -0.49481
C     3.24260  -0.28905  -0.07089
O     4.41097   0.07355   0.50451
C     4.86881   1.40390   0.26106
C     2.72770  -1.53051  -0.16318
C     3.26540  -2.83473   0.31106
C     1.11830   0.68007   0.70626
H    -0.60341   5.54209   1.01843
H    -0.16162   5.44470  -0.71923
H    -1.89716   5.50051  -0.23591
H    -4.05553  -1.85614   2.72561
H    -4.90686  -0.29366   2.44128
H    -3.53709  -0.38058   3.60885
H    -1.72491  -3.10682   0.25102
H    -2.58334  -4.38114  -1.69110
H    -2.94482  -3.23718  -3.88177
H    -2.44496  -0.80183  -4.09828
H    -1.59468   0.47464  -2.14566
H     0.64964  -1.36897   1.47492
H     0.81734  -2.11319  -1.18157
H     2.40291   1.64810  -0.89506
H     5.83292   1.50139   0.77652
H     4.16616   2.14980   0.66706
H     5.01293   1.58547  -0.81661
H     3.20690  -3.60954  -0.47242
H     4.31416  -2.74083   0.62941
H     2.68375  -3.21167   1.17218
H     1.61862   0.92312   1.65258
