24
Generated by autodE on: 2022-10-23. E = -610.171439 Ha
C     4.78333   0.06358  -0.04293
C     3.34911   0.47858  -0.22991
O     3.03596   1.57860  -0.71757
C     2.33018  -0.45455   0.19036
N     1.06848  -0.05513   0.02136
C    -0.10728  -0.63674   0.29849
C    -0.06378  -1.91464   0.91032
N    -0.01431  -2.96646   1.41279
C    -1.38784   0.00302  -0.00737
C    -2.58811  -0.59951   0.42571
C    -3.82132  -0.00923   0.15418
C    -3.88961   1.19451  -0.55411
C    -2.70603   1.79883  -0.99272
C    -1.46912   1.21331  -0.72856
H     5.45291   0.81155  -0.48716
H     5.00598  -0.03392   1.03291
H     4.96445  -0.92230  -0.50007
H     2.53923  -1.43190   0.62252
H     1.03543   0.88574  -0.40094
H    -2.55238  -1.53677   0.98482
H    -4.73605  -0.49470   0.50188
H    -4.85589   1.65717  -0.76607
H    -2.74395   2.73561  -1.55326
H    -0.57186   1.71049  -1.10393
