40
Generated by autodE on: 2022-06-04. E = -6120.523323 Ha
C     4.67689  -0.68227  -0.50374
N     3.44156  -0.36297  -1.19315
C     2.25125  -0.62723  -0.63325
O     2.15084  -1.21155   0.44637
C     0.96225  -0.22409  -1.41425
C     1.26774   0.25741  -2.83473
N     0.06079  -1.38583  -1.46064
C     0.61990  -2.63225  -1.96367
C    -0.80315  -1.47717  -0.30796
C    -0.28972  -2.39676   0.74462
N     0.04825  -3.26880   1.43153
C    -2.22446  -2.07887  -0.65802
C    -2.68476  -2.05264  -2.08131
O    -2.89170  -2.52413   0.25115
C    -0.97493   0.01736   0.17828
Br   -1.01241   0.12301   2.12673
C    -2.26204   0.71740  -0.40459
C    -2.34004   2.12896   0.15215
C    -1.39163   2.81298  -0.49427
C    -0.73997   1.80818  -1.43427
O    -1.83565   0.94362  -1.75256
C     0.15281   0.83214  -0.58305
Br    1.36146   1.95092   0.49628
H     4.72722  -1.75546  -0.26424
H     5.52353  -0.42167  -1.15017
H     4.76253  -0.12081   0.44098
H     3.49177   0.13813  -2.07143
H     0.33788   0.38599  -3.40069
H     1.80486   1.21704  -2.82174
H     1.88584  -0.47392  -3.37183
H     0.99984  -2.48713  -2.98376
H     1.43824  -3.02422  -1.33220
H    -0.16043  -3.40324  -2.00729
H    -2.48531  -1.08132  -2.54905
H    -2.12548  -2.80709  -2.65744
H    -3.75390  -2.29877  -2.11272
H    -3.17815   0.12253  -0.35580
H    -3.00243   2.45345   0.95233
H    -1.07770   3.84633  -0.36030
H    -0.26067   2.20646  -2.33058
