13
Generated by autodE on: 2022-06-04. E = -5454.682431 Ha
Br    1.56139   1.33349   0.57786
C    -0.07615   0.79172  -0.13076
C    -0.52772  -0.43250  -0.42851
Br    0.29574  -2.09683  -0.25820
C    -2.02285  -0.22596  -0.78407
C    -2.74745   0.15628   0.52896
C    -2.29720   1.37830   0.82478
C    -1.30475   1.72062  -0.31228
O    -1.93748   1.06000  -1.42180
H    -2.48245  -0.98521  -1.42518
H    -3.42722  -0.49315   1.07896
H    -2.50424   2.01269   1.68558
H    -1.09471   2.77605  -0.51419
