27
Generated by autodE on: 2022-07-27. E = -665.782613 Ha
C     1.96438   1.36509   2.20358
N     1.13032   1.33288   1.01476
C     1.57882   0.79405  -0.12608
O     2.74317   0.45111  -0.33250
C     0.58815   0.67784  -1.26643
C     0.98149   1.28304  -2.56424
N    -0.52327   0.00508  -1.12606
C    -1.45966  -0.07978  -2.26614
C    -0.82107  -0.77164   0.03957
C     0.18198  -1.62534   0.52974
N     1.01883  -2.32903   0.94988
C    -2.04399  -0.64486   0.77218
C    -3.05775   0.40771   0.36930
O    -2.27352  -1.36742   1.76329
H     2.94274   1.80762   1.97038
H     1.46874   1.97311   2.96951
H     2.12724   0.34856   2.59828
H     0.12820   1.46745   1.12493
H     0.25801   2.06382  -2.85221
H     1.98093   1.72490  -2.49182
H     0.97654   0.52633  -3.36665
H    -1.75339   0.92552  -2.59253
H    -0.95989  -0.60111  -3.09499
H    -2.33450  -0.65804  -1.96347
H    -2.61967   1.26838  -0.15413
H    -3.82386  -0.04087  -0.28439
H    -3.56321   0.75616   1.28108
