27
Generated by autodE on: 2022-06-04. E = -665.785906 Ha
C     3.14578   1.81752   0.97298
N     2.54384   0.51195   0.77868
C     1.55174   0.34278  -0.11111
O     1.22389   1.20098  -0.93243
C     0.93364  -1.03890  -0.15916
C     1.81722  -2.23824  -0.07501
N    -0.34117  -1.17322  -0.43713
C    -0.86590  -2.50861  -0.78437
C    -1.28966  -0.13414  -0.26374
C    -2.37309  -0.08252  -1.15708
N    -3.28084  -0.01602  -1.89467
C    -1.22097   0.72875   0.87793
C    -2.34570   1.72653   1.05826
O    -0.28905   0.68017   1.70334
H     3.98974   1.72145   1.66671
H     2.41766   2.53420   1.38903
H     3.51219   2.21625   0.01668
H     2.65450  -0.18134   1.51245
H     1.37561  -3.01860   0.56290
H     1.95809  -2.67497  -1.07927
H     2.80756  -1.97340   0.30924
H    -0.23541  -2.97646  -1.54906
H    -0.88497  -3.13861   0.11599
H    -1.88468  -2.40020  -1.16694
H    -2.25665   2.52111   0.29869
H    -3.33814   1.26751   0.94058
H    -2.26306   2.18021   2.05458
