40
Generated by autodE on: 2022-06-04. E = -6120.438369 Ha. Imaginary frequency = -245.6 cm-1
C     3.74014  -0.91109   1.10010
N     2.64046  -0.45304   0.27368
C     2.15506  -1.21168  -0.70818
O     2.68974  -2.25855  -1.08429
C     0.94221  -0.78784  -1.55885
C     1.39983  -0.21847  -2.87113
N    -0.12117  -1.62970  -1.51994
C    -0.80649  -1.94200  -2.78558
C    -0.63400  -2.08878  -0.30897
C     0.24292  -2.37997   0.77102
N     0.90679  -2.66539   1.68655
C    -2.00439  -2.56270  -0.03068
C    -3.13767  -2.53225  -1.02613
O    -2.23401  -2.98563   1.10857
C    -0.84142   0.47916   0.49330
Br   -0.33116   0.51569   2.29053
C    -2.32471   0.59296   0.08839
C    -2.65798   2.09722   0.11896
C    -1.99480   2.62124  -0.91766
C    -1.26110   1.42773  -1.56576
O    -2.19368   0.37219  -1.32325
C    -0.12790   1.01843  -0.57872
Br    1.22249   2.36814  -0.37775
H     4.57635  -1.25066   0.47334
H     4.07827  -0.08083   1.73240
H     3.42007  -1.74785   1.74301
H     2.10994   0.34971   0.58626
H     0.57706   0.19573  -3.46585
H     2.12943   0.57861  -2.67360
H     1.91068  -0.99290  -3.46750
H    -1.50063  -1.14677  -3.07953
H    -0.04959  -2.07739  -3.56521
H    -1.33874  -2.88759  -2.67811
H    -3.15020  -1.63545  -1.65140
H    -3.07478  -3.41413  -1.68372
H    -4.07176  -2.60553  -0.45371
H    -3.02883  -0.09664   0.56343
H    -3.25734   2.58881   0.88415
H    -1.91242   3.65885  -1.23759
H    -0.98996   1.50589  -2.62279
