42
Generated by autodE on: 2022-06-19. E = -953.731305 Ha
C     2.29257   3.54551   0.09276
N     1.43093   2.40853   0.35301
C     1.46997   1.30709  -0.40716
O     2.29233   1.13031  -1.31089
C     0.38683   0.24772  -0.15688
C     1.03940  -1.14102  -0.04733
O     0.46624  -2.19256  -0.24440
O     2.26595  -1.07113   0.46935
C     2.90470  -2.31533   0.79799
N    -0.38012   0.47549   1.08487
C     0.25038   0.22830   2.37589
N    -1.59732  -0.26324   0.90701
C    -1.79270  -1.38893   1.58290
N    -2.05052  -2.31871   2.24718
C    -2.06733  -0.10373  -0.50673
C    -2.62574  -1.42761  -1.02689
C    -3.20066   0.92786  -0.49687
C    -0.73858   0.37551  -1.26640
C    -0.86248   1.84408  -1.71793
C    -0.40233  -0.43295  -2.52613
H     2.23801   4.23804   0.94184
H     3.33257   3.21297  -0.03218
H     1.99044   4.08029  -0.82372
H     0.63827   2.51730   0.97910
H     3.88137  -2.04936   1.21746
H     2.30644  -2.86666   1.53718
H     3.03034  -2.92886  -0.10526
H    -0.43092   0.56573   3.16925
H     1.17246   0.81637   2.43246
H     0.50118  -0.83255   2.55476
H    -2.96477  -1.29601  -2.06297
H    -3.49816  -1.72991  -0.42901
H    -1.88197  -2.23091  -0.99591
H    -3.55217   1.13719  -1.51648
H    -2.89788   1.87203  -0.02807
H    -4.04492   0.51732   0.07648
H    -1.70436   1.94542  -2.41452
H     0.04108   2.15198  -2.26104
H    -1.02047   2.53996  -0.88645
H     0.56715  -0.09344  -2.91864
H    -1.16224  -0.24887  -3.29918
H    -0.33720  -1.51028  -2.35432
