24
Generated by autodE on: 2022-07-27. E = -717.720202 Ha
C     2.40406   2.67934  -1.84145
N     1.48068   1.63098  -1.45434
C     1.03904   1.46617  -0.19399
O     1.36190   2.18118   0.75853
C     0.13480   0.28057  -0.02706
C     0.37238  -0.93865  -0.87694
O     0.10045  -0.96705  -2.05917
O     0.96115  -1.90890  -0.20233
C     1.23463  -3.12891  -0.92044
N    -0.87954   0.23186   0.80574
C    -1.28978   1.36872   1.65561
N    -1.59688  -0.89684   0.84457
C    -2.60138  -0.95918   1.68454
N    -3.51271  -1.15292   2.37362
H     2.60366   3.31997  -0.97530
H     1.97293   3.28987  -2.64871
H     3.35466   2.25168  -2.19728
H     1.10376   1.02845  -2.18199
H     1.75369  -3.78180  -0.21059
H     0.29141  -3.58850  -1.24767
H     1.87079  -2.92051  -1.79164
H    -2.34477   1.57924   1.44037
H    -0.66184   2.23515   1.45145
H    -1.17876   1.06016   2.70367
