42
Generated by autodE on: 2022-06-19. E = -953.672803 Ha. Imaginary frequency = -313.7 cm-1
C     3.11947   2.76292  -1.20764
N     2.44958   1.52954  -0.85520
C     1.50472   1.50854   0.10270
O     1.22664   2.52776   0.75085
C     0.76040   0.21410   0.29234
C     1.34904  -1.04004  -0.26545
O     2.09076  -1.07159  -1.24082
O     1.05142  -2.14617   0.41211
C     1.58460  -3.37698  -0.09489
N    -0.09428   0.08981   1.36094
C    -0.30641   1.08587   2.41890
N    -1.07966  -0.78599   1.10503
C    -1.89629  -1.16371   2.06076
N    -2.69696  -1.58668   2.80957
C    -2.00742  -0.18689  -0.66615
C    -2.37329  -1.57707  -1.11616
C    -3.14840   0.60657  -0.07456
C    -0.96151   0.51518  -1.34153
C    -1.01031   2.02429  -1.36896
C    -0.35729  -0.08388  -2.58531
H     3.68038   3.17495  -0.35356
H     2.40030   3.53098  -1.53674
H     3.82139   2.56183  -2.02634
H     2.60982   0.67119  -1.38118
H     1.21816  -4.15923   0.57974
H     1.22514  -3.55851  -1.11788
H     2.68386  -3.35459  -0.09173
H    -0.79940   0.56890   3.25321
H    -0.94055   1.91451   2.07720
H     0.65542   1.47509   2.75713
H    -2.92572  -1.52807  -2.07140
H    -1.48938  -2.20937  -1.26879
H    -3.02687  -2.06638  -0.37886
H    -3.77322  -0.01331   0.58439
H    -2.80866   1.48284   0.49118
H    -3.79502   0.97198  -0.89333
H    -1.86889   2.35347  -1.98389
H    -0.10491   2.44172  -1.83051
H    -1.12732   2.47511  -0.37660
H     0.59720   0.40044  -2.83360
H    -1.04288   0.09352  -3.43575
H    -0.18753  -1.16467  -2.52480
