29
Generated by autodE on: 2022-10-06. E = -596.558515 Ha
C     4.29098   1.27924  -0.48430
C     2.79239   1.06965  -0.44889
O     2.03008   2.00271  -0.83528
C     2.26162  -0.16844   0.02342
C     3.07259  -1.31916   0.52336
N     0.88869  -0.14832   0.01208
C    -0.11725  -0.95653   0.29265
C     0.06419  -2.39196   0.67336
C    -1.47596  -0.40918   0.17293
C    -1.72827   0.98261   0.12764
C    -3.02515   1.47341  -0.00392
C    -4.11326   0.59565  -0.08061
C    -3.88410  -0.78180  -0.01934
C    -2.58689  -1.27951   0.10901
H     4.79040   0.52009  -1.10719
H     4.73017   1.21229   0.52421
H     4.50114   2.27452  -0.89788
H     4.14089  -1.07845   0.46805
H     2.91744  -2.23924  -0.06595
H     2.84852  -1.56349   1.57638
H     0.62622   0.78964  -0.33741
H     1.09899  -2.64041   0.91478
H    -0.56622  -2.64256   1.53995
H    -0.25471  -3.04923  -0.15429
H    -0.91173   1.70195   0.22304
H    -3.18916   2.55321  -0.03252
H    -5.12958   0.98372  -0.17822
H    -4.72304  -1.47966  -0.07445
H    -2.43726  -2.35864   0.14280
