39
Generated by autodE on: 2022-10-06. E = -1051.598122 Ha. Imaginary frequency = -383.2 cm-1
C     4.03118   1.36432   0.07205
C     2.54635   1.52036   0.27754
O     2.11424   2.08682   1.29397
C     1.62249   0.94480  -0.70746
C     2.07414   0.67091  -2.11560
N     0.31466   1.22391  -0.40273
C    -0.78231   0.52247  -0.81427
C    -1.11527   0.41425  -2.28442
C    -1.97134   0.67277   0.07634
C    -2.10941   1.75321   0.96838
C    -3.23251   1.86460   1.79248
C    -4.24476   0.90279   1.74269
C    -4.11923  -0.17625   0.86040
C    -2.99999  -0.28888   0.03543
C     0.08629  -1.47906  -0.33227
C    -0.24561  -2.28536  -1.56010
O    -1.39520  -2.81958  -1.60690
O     0.61805  -2.38263  -2.48065
C     1.41542  -1.21137   0.03355
C     1.76893  -0.96787   1.47256
O     0.84668  -0.57415   2.24748
O     2.97417  -1.15027   1.81813
H     4.37211   2.02134  -0.74547
H     4.54913   1.64689   0.99753
H     4.29485   0.33221  -0.19631
H     3.15969   0.51999  -2.14223
H     1.83757   1.52310  -2.77669
H     1.61414  -0.23361  -2.52854
H     0.27732   1.50051   0.58220
H    -0.25255   0.19393  -2.91533
H    -1.55934   1.36845  -2.61971
H    -1.86068  -0.37219  -2.44805
H    -1.34821   2.53502   1.01247
H    -3.31773   2.71706   2.47092
H    -5.12312   0.99147   2.38628
H    -4.89761  -0.94230   0.81830
H    -2.89045  -1.15590  -0.61758
H    -0.62685  -1.56604   0.48825
H     2.22226  -1.56948  -0.60903
