53
Generated by autodE on: 2022-06-04. E = -1185.895207 Ha
C    -3.36388   2.89593  -0.42471
N    -2.72034   1.60555  -0.30120
C    -1.51184   1.48251   0.29344
O    -0.91659   2.42197   0.83368
N    -0.98603   0.19526   0.32396
N    -1.72861  -0.83825  -0.28144
C    -2.49431  -1.62263   0.69818
N    -0.78653  -1.56819  -1.01336
C    -1.13009  -2.08140  -2.23103
C    -2.48534  -1.68007  -2.76449
O    -0.38505  -2.84373  -2.84918
C     0.53944  -1.53869  -0.35056
C     0.63493  -2.67886   0.67801
C     1.70953  -1.68660  -1.32639
C     0.47456  -0.06296   0.32184
C     1.04115  -0.08770   1.74202
C     2.39216  -0.39984   1.97188
C     2.90531  -0.46025   3.26859
C     2.07694  -0.20817   4.36687
C     0.73227   0.09899   4.15060
C     0.22064   0.15635   2.85008
C     1.13479   0.99552  -0.58959
C     2.20776   1.79910  -0.19051
C     2.74708   2.76192  -1.05215
C     2.21512   2.94784  -2.32816
C     1.12752   2.16572  -2.73215
C     0.59345   1.20828  -1.87097
H    -4.40351   2.74777  -0.74414
H    -2.86048   3.54718  -1.16021
H    -3.36604   3.41851   0.54284
H    -3.05388   0.80716  -0.83382
H    -1.89100  -1.98709   1.54227
H    -2.95493  -2.47241   0.17692
H    -3.29549  -0.97824   1.08561
H    -2.60875  -0.58761  -2.74773
H    -3.29511  -2.11146  -2.15715
H    -2.56860  -2.05753  -3.79135
H     1.66359  -2.78171   1.04627
H     0.35482  -3.61531   0.17380
H    -0.01640  -2.53737   1.54689
H     1.83641  -2.73874  -1.60551
H     2.62736  -1.35032  -0.82547
H     1.58505  -1.09841  -2.24020
H     3.05645  -0.60665   1.13230
H     3.95879  -0.70730   3.41976
H     2.47768  -0.25348   5.38225
H     0.07052   0.29472   4.99779
H    -0.83258   0.38650   2.69633
H     2.62955   1.69919   0.80749
H     3.58400   3.37599  -0.71097
H     2.63446   3.70097  -2.99934
H     0.68770   2.30381  -3.72268
H    -0.26395   0.62443  -2.20495
