32
Generated by autodE on: 2022-06-04. E = -619.625588 Ha
C    -0.97490   2.97978   0.84311
C     0.18284   2.01986   0.75026
C     1.48102   2.61286   1.23343
C     0.06777   0.75026   0.27928
C     1.19243  -0.23074   0.31491
C     1.53663  -0.95340  -0.84326
C     2.57384  -1.88765  -0.82597
C     3.27985  -2.13366   0.35703
C     2.93731  -1.43728   1.51995
C     1.90312  -0.49726   1.49885
C    -1.19381   0.22065  -0.31781
C    -1.71648  -1.01301   0.11448
C    -2.88489  -1.53411  -0.44430
C    -3.54864  -0.83998  -1.46217
C    -3.03128   0.37732  -1.91513
C    -1.86519   0.90076  -1.34952
H    -0.95157   3.48949   1.82184
H    -0.89275   3.77497   0.08126
H    -1.95326   2.49708   0.72773
H     1.59596   3.63004   0.82061
H     2.36264   2.02382   0.95192
H     1.48072   2.72605   2.33192
H     0.98537  -0.77213  -1.76893
H     2.83139  -2.42888  -1.73985
H     4.08801  -2.86887   0.37320
H     3.47303  -1.63140   2.45256
H     1.63149   0.02923   2.41585
H    -1.19964  -1.56422   0.90354
H    -3.27884  -2.48826  -0.08537
H    -4.45986  -1.24987  -1.90436
H    -3.53386   0.92087  -2.71909
H    -1.45919   1.84343  -1.72146
