21
Generated by autodE on: 2022-06-04. E = -566.230366 Ha
C    -2.93119   1.71010  -0.28675
N    -2.25704   0.43288  -0.39958
C    -1.15555   0.15102   0.31124
O    -0.65084   0.90847   1.14277
N    -0.72346  -1.18176   0.10147
N     0.51979  -1.46490   0.19069
C     0.82793  -2.90598   0.31718
N     1.56812  -0.70294   0.22154
C     1.55257   0.54424  -0.39027
C     2.57064   1.49120   0.16862
O     0.83454   0.81735  -1.34817
H    -2.20070   2.53133  -0.32486
H    -3.49272   1.79413   0.65874
H    -3.63274   1.81773  -1.12285
H    -2.63856  -0.29306  -0.99783
H     1.38039  -3.04893   1.25413
H    -0.11201  -3.46390   0.32394
H     1.46163  -3.19222  -0.53140
H     2.72901   2.32859  -0.52292
H     3.51804   0.97832   0.38517
H     2.17553   1.88150   1.12223
