30
Generated by autodE on: 2022-05-30. E = -543.362514 Ha
C    -0.84551   2.48786   0.59880
C    -1.19803   1.04043   0.51232
C    -0.42076  -0.05280   0.28818
C     1.03364  -0.14488   0.12257
C     1.92023   0.70171   0.82301
C     3.30146   0.60242   0.64630
C     3.83779  -0.34978  -0.22728
C     2.97498  -1.20979  -0.91495
C     1.59346  -1.11374  -0.73834
C    -1.37343  -1.22263   0.03273
C    -2.04070  -0.96010  -1.35527
C    -2.91978   0.29406  -1.07943
C    -2.64734   0.57804   0.43414
C    -2.53097  -0.85671   0.98025
H     0.18268   2.69851   0.27298
H    -0.95766   2.86927   1.62963
H    -1.53536   3.08013  -0.02679
H     1.52244   1.42590   1.53504
H     3.96532   1.26742   1.20467
H     4.91908  -0.42761  -0.36314
H     3.38099  -1.96330  -1.59467
H     0.93574  -1.79105  -1.28634
H    -0.93218  -2.22173   0.14192
H    -1.29003  -0.79514  -2.14127
H    -2.65597  -1.82266  -1.65414
H    -3.98755   0.08195  -1.24307
H    -2.65088   1.15650  -1.70695
H    -3.37801   1.24967   0.90536
H    -3.43683  -1.46282   0.81863
H    -2.24502  -0.89150   2.04223
