41
Generated by autodE on: 2022-06-01. E = -1379.527665 Ha
C     4.05546  -2.57547  -0.14315
N     3.04877  -1.55528  -0.36834
C     2.54422  -0.79123   0.60455
O     2.88944  -0.79358   1.78202
C     1.43780   0.19794   0.12236
C     2.01005   1.62866   0.32705
C     2.46406   2.35474  -0.90190
O     2.16605   2.05248   1.45291
O     1.11395  -0.01266  -1.24688
C    -0.22538  -0.45895  -1.44573
C    -0.71813   0.05238  -2.79529
C    -0.20580  -1.94548  -1.46354
N    -0.09908  -3.06971  -1.54629
C    -0.99362   0.07806  -0.17757
C    -1.34834   1.55929  -0.38659
O    -0.55769   2.46154  -0.21949
O    -2.59375   1.70281  -0.79268
C    -3.04544   3.04585  -1.08111
C    -2.26177  -0.70374   0.17355
O    -2.79917  -1.46828  -0.59557
O    -2.67097  -0.40638   1.41110
C    -3.87124  -1.04536   1.90654
C     0.10506  -0.06793   0.89041
F     0.06584  -1.36014   1.32204
F    -0.08213   0.70790   1.97505
H     3.60924  -3.57923  -0.20165
H     4.84820  -2.49661  -0.89958
H     4.49778  -2.44259   0.85231
H     2.63730  -1.46003  -1.29645
H     3.22382   1.75048  -1.42364
H     1.63083   2.49851  -1.60017
H     2.89202   3.32110  -0.60869
H    -1.76051  -0.25396  -2.94760
H    -0.63898   1.14494  -2.84020
H    -0.09298  -0.37684  -3.58956
H    -4.08979   2.94508  -1.39330
H    -2.96553   3.66293  -0.17595
H    -2.43787   3.47508  -1.88751
H    -4.00959  -0.67505   2.92842
H    -3.73946  -2.13624   1.90482
H    -4.73102  -0.77402   1.28181
