41
Generated by autodE on: 2022-06-01. E = -1379.438804 Ha. Imaginary frequency = -293.3 cm-1
C     2.64458  -3.21019   1.40437
N     2.45346  -1.82157   1.03513
C     1.72668  -1.48234  -0.03439
O     1.18540  -2.30587  -0.78484
C     1.59689  -0.01807  -0.32665
C     2.73913   0.91293  -0.12321
C     2.85016   2.09948  -1.03667
O     3.51495   0.72297   0.80859
O     0.90184   0.30960  -1.44824
C    -0.22053  -0.07671  -1.94715
C    -0.76963   0.76595  -3.03926
C    -0.90083  -1.31126  -1.70557
N    -1.68369  -2.17455  -1.69977
C    -1.06767   0.66329   0.61768
C    -1.62244   1.79315  -0.15881
O    -0.98450   2.78091  -0.49044
O    -2.90319   1.62541  -0.50613
C    -3.50520   2.68552  -1.26188
C    -1.85742  -0.54819   0.95274
O    -3.06773  -0.64409   0.90361
O    -1.06849  -1.57096   1.30470
C    -1.70285  -2.81511   1.61835
C     0.21473   0.81837   1.17771
F     0.61356   0.10034   2.20834
F     0.75959   2.02058   1.27313
H     3.21302  -3.76103   0.63734
H     3.19580  -3.25060   2.35143
H     1.67314  -3.71243   1.53387
H     2.94408  -1.07312   1.52154
H     3.01905   1.76529  -2.07260
H     1.91202   2.67378  -1.02941
H     3.68425   2.72919  -0.70344
H    -1.86543   0.80821  -2.95905
H    -0.33624   1.77204  -2.99211
H    -0.52805   0.30121  -4.01208
H    -4.53700   2.36637  -1.44920
H    -3.49657   3.62211  -0.68593
H    -2.97608   2.83618  -2.21316
H    -0.89397  -3.49620   1.90748
H    -2.23046  -3.20524   0.73675
H    -2.41210  -2.69089   2.44899
