32
Generated by autodE on: 2022-10-07. E = -744.211458 Ha
C    -4.22755   1.24619   1.08245
N    -3.51333   0.16800   0.42592
C    -2.30993   0.37231  -0.13937
O    -1.77703   1.48894  -0.17518
C    -1.68348  -0.82373  -0.79820
C    -2.51376  -1.73094  -1.64862
N    -0.37307  -1.00811  -0.69275
C     0.27387  -1.98770  -1.59012
C     0.40411  -0.44944   0.32562
C    -0.20045  -0.26209   1.57630
N    -0.67559  -0.11772   2.64007
C     1.76045   0.03520   0.08983
C     2.66560   0.17771   1.16753
C     3.95497   0.66413   0.96333
C     4.38884   1.01655  -0.32109
C     3.50220   0.89152  -1.39561
C     2.20338   0.42194  -1.19614
H    -5.15987   0.85000   1.50197
H    -3.62237   1.67758   1.89548
H    -4.47022   2.05274   0.37318
H    -3.89048  -0.77311   0.46917
H    -2.18451  -1.70434  -2.70079
H    -2.44175  -2.77998  -1.31373
H    -3.56654  -1.42877  -1.62442
H    -0.18057  -2.97299  -1.41995
H     0.13339  -1.70120  -2.63979
H     1.33791  -2.04599  -1.35242
H     2.34751  -0.10454   2.17390
H     4.63280   0.76118   1.81522
H     5.40210   1.39234  -0.47957
H     3.81722   1.18068  -2.40152
H     1.51881   0.37664  -2.04467
