32
Generated by autodE on: 2022-10-13. E = -744.210614 Ha
C    -5.07816  -0.84655   0.83419
N    -3.73643  -0.30218   0.90486
C    -2.92696  -0.18388  -0.16336
O    -3.23512  -0.52966  -1.30939
C    -1.59109   0.45246   0.11665
C    -1.53733   1.77344   0.79204
N    -0.49183  -0.14472  -0.32126
C    -0.54613  -1.54572  -0.79619
C     0.73256   0.53250  -0.43865
C     0.70077   1.81517  -0.99897
N     0.66639   2.88135  -1.49073
C     1.98769  -0.05889   0.01276
C     2.02026  -1.09532   0.97461
C     3.23260  -1.63502   1.40652
C     4.44783  -1.14596   0.91587
C     4.43185  -0.10338  -0.01931
C     3.22511   0.42824  -0.46951
H    -5.79995  -0.15151   1.28902
H    -5.14322  -1.81155   1.36149
H    -5.34321  -1.00080  -0.21806
H    -3.38100  -0.01700   1.81273
H    -0.60325   1.85930   1.37210
H    -2.40786   1.90785   1.44732
H    -1.53634   2.61076   0.06975
H    -1.10203  -2.16697  -0.08266
H     0.47290  -1.92327  -0.90241
H    -1.04422  -1.56354  -1.77174
H     1.08930  -1.46941   1.40469
H     3.22552  -2.43726   2.14901
H     5.39496  -1.56561   1.26210
H     5.37167   0.29448  -0.41076
H     3.23174   1.23163  -1.21003
