10
Generated by autodE on: 2022-10-07. E = -455.051698 Ha
O    -2.34861  -0.56744   0.83679
C    -1.94214  -0.19339  -0.29761
O    -2.66437   0.00144  -1.31495
C    -0.45946   0.05646  -0.48438
C     0.45945  -0.05646   0.48436
C     1.94214   0.19337   0.29761
O     2.34863   0.56751  -0.83676
O     2.66436  -0.00149   1.31494
H    -0.14161   0.35333  -1.48962
H     0.14158  -0.35333   1.48960
