47
Generated by autodE on: 2022-06-20. E = -1052.361755 Ha
C     2.30712   3.32032  -0.82803
N     1.51561   2.19526  -0.37382
C     1.96873   0.94228  -0.45782
O     3.11527   0.67422  -0.86343
C     0.92787  -0.15366  -0.11700
C     1.52750  -1.43754   0.52401
O     0.78010  -2.22363   1.12341
N     2.83741  -1.66227   0.38780
C     3.46163  -2.86297   0.90366
C     0.19791  -0.49799  -1.45936
C     0.87364  -1.55900  -2.31413
C    -1.23045  -0.83889  -1.00739
C    -2.24333  -0.85347  -2.14445
C    -1.47668   0.14511   0.17621
C    -2.10254   1.49093  -0.29091
C    -3.57116   1.56225  -0.61472
O    -1.40288   2.48483  -0.39580
C    -2.38638  -0.40702   1.30421
C    -2.48131  -1.88204   1.53359
O    -2.96171   0.39572   2.02252
N    -0.14092   0.36884   0.70088
C     0.09856   0.72805   2.08025
H     2.47564   3.28811  -1.91792
H     3.29115   3.32888  -0.33578
H     1.77950   4.24993  -0.58029
H     0.51640   2.31276  -0.17201
H     3.36231  -0.96120  -0.14225
H     4.54177  -2.81119   0.71885
H     3.29106  -2.96627   1.98687
H     3.06192  -3.76672   0.41465
H     0.15079   0.44004  -2.03607
H     0.86015  -2.54367  -1.82123
H     0.35855  -1.65775  -3.28092
H     1.91921  -1.28524  -2.51796
H    -1.19269  -1.84296  -0.56640
H    -2.28898   0.11202  -2.67169
H    -1.95880  -1.61996  -2.88035
H    -3.25207  -1.10250  -1.78500
H    -4.07919   0.59227  -0.58075
H    -4.04475   2.23402   0.11846
H    -3.69390   2.01517  -1.60971
H    -1.47421  -2.32199   1.56422
H    -3.01944  -2.35295   0.69433
H    -3.02253  -2.07250   2.46932
H    -0.07650  -0.09976   2.79307
H    -0.53557   1.57717   2.37725
H     1.14585   1.04308   2.19394
