35
Generated by autodE on: 2022-07-27. E = -894.995381 Ha
C     1.88548   2.08665  -2.61023
N     1.75588   1.30144  -1.39709
C     0.72341   0.46299  -1.21811
O    -0.10469   0.18073  -2.08309
C     0.71204  -0.24953   0.11485
C     2.05259  -0.64164   0.70055
O     2.50465   0.03933   1.62400
N     2.65872  -1.67945   0.11606
C     3.97496  -2.15661   0.50098
N    -0.39433  -0.59287   0.70956
C    -0.32922  -1.50961   1.87004
C    -1.62919   0.06020   0.44064
C    -1.56973   1.50272   0.44022
C    -2.85500   2.29593   0.38964
O    -0.48661   2.11744   0.49253
C    -2.79060  -0.74180   0.15018
C    -2.58814  -2.22318  -0.12945
O    -3.93856  -0.27284   0.05596
H     1.77130   1.44077  -3.49146
H     1.11968   2.87883  -2.65928
H     2.87948   2.54952  -2.63018
H     2.28809   1.58531  -0.57828
H     2.17909  -2.13825  -0.65528
H     4.70130  -1.98970  -0.30934
H     4.30309  -1.61067   1.39283
H     3.93947  -3.23199   0.72766
H     0.12176  -2.46335   1.57193
H    -1.33919  -1.66604   2.25517
H     0.27857  -1.03662   2.65269
H    -3.35794   2.13575  -0.57639
H    -3.56416   1.98228   1.16709
H    -2.60548   3.35961   0.50304
H    -1.61555  -2.44245  -0.59169
H    -3.39518  -2.55600  -0.79657
H    -2.66639  -2.80523   0.80303
