42
Generated by autodE on: 2022-06-01. E = -1422.501239 Ha
C    -4.81863   1.43025   2.02080
O    -3.55605   0.81292   1.70928
C    -3.39550   0.34936   0.48136
O    -4.24384   0.33931  -0.37903
C    -1.93973  -0.19127   0.28645
C    -2.01141  -1.62183   0.62777
N    -2.12248  -2.74685   0.88357
N    -0.93697   0.50007   1.08783
C    -0.57910   1.73890   0.39201
C    -1.46834   2.86728   0.73844
N    -2.17990   3.73632   1.03056
C    -0.69675   1.39095  -1.11204
C     0.60802   0.98237  -1.87456
O     0.07518   0.04369  -2.81756
C    -0.43893  -0.88198  -1.84881
C     0.78951  -1.08906  -0.96561
C     1.17943  -2.38589  -0.34190
F     0.52935  -3.41786  -0.91329
F     2.49900  -2.62886  -0.47444
F     0.91697  -2.46027   0.98571
C     1.45366   0.08999  -0.96427
C     2.64947   0.54888  -0.25363
C     3.46815   1.54034  -0.83130
C     4.61581   1.98603  -0.17552
C     4.95793   1.46332   1.07539
C     4.14289   0.49289   1.66823
C     2.99906   0.03908   1.01343
C    -1.49140   0.05974  -1.16816
H    -5.63736   0.71225   1.87526
H    -4.75221   1.73265   3.07135
H    -4.96897   2.30811   1.37714
H    -1.23617   0.64291   2.05136
H     0.44121   2.04617   0.66857
H    -1.19333   2.19197  -1.66903
H     1.12103   1.80729  -2.37575
H    -0.86187  -1.77402  -2.31980
H     3.21389   1.95337  -1.80856
H     5.24473   2.74692  -0.64304
H     5.85364   1.81677   1.59132
H     4.39566   0.09205   2.65242
H     2.35817  -0.69443   1.50058
H    -2.36620   0.10843  -1.82223
