16
Generated by autodE on: 2022-07-27. E = -546.533670 Ha
C    -2.06833   1.77657   0.25330
O    -0.89662   1.02368  -0.08449
C    -0.99813  -0.30454  -0.11379
O    -2.04731  -0.91554   0.01443
C     0.28146  -0.95750  -0.37881
C     0.23682  -2.31723  -0.76563
N     0.19554  -3.43985  -1.08172
N     1.50982  -0.36587  -0.35683
C     2.02306   0.76913   0.08715
C     1.39516   1.76427   0.86477
N     1.03565   2.63321   1.55483
H    -2.84224   1.64433  -0.51609
H    -1.74860   2.82371   0.29743
H    -2.45957   1.45755   1.22988
H     2.23478  -0.96022  -0.77335
H     3.08809   0.90449  -0.10992
