26
Generated by autodE on: 2022-06-01. E = -875.881564 Ha
F     2.48554  -1.88812   0.46628
C     1.18443  -1.54265   0.55101
F     0.71745  -2.08518   1.70214
F     0.54592  -2.18212  -0.45097
C     1.02680  -0.06790   0.49895
C    -0.02378   0.69576   0.13604
C    -1.39653   0.38666  -0.24803
C    -2.07075  -0.74977   0.24489
C    -3.37666  -1.02575  -0.15540
C    -4.03578  -0.17667  -1.05238
C    -3.38272   0.96003  -1.53838
C    -2.07854   1.24645  -1.13297
C     0.57792   2.13585   0.09150
C     1.54108   2.18596  -1.11214
C     2.57394   1.41832  -0.75222
C     2.21508   0.91328   0.66369
O     1.50999   2.05163   1.17958
H    -1.57864  -1.40407   0.96478
H    -3.88769  -1.90635   0.24057
H    -5.05947  -0.39676  -1.36390
H    -3.89251   1.63033  -2.23411
H    -1.57786   2.13600  -1.52053
H    -0.13168   2.95980   0.21481
H     1.34107   2.69809  -2.05248
H     3.45977   1.12509  -1.31434
H     3.03458   0.59409   1.31532
