46
Generated by autodE on: 2022-06-19. E = -831.581785 Ha
C    -0.28679   2.40927   2.02525
N    -1.00020   1.42850   1.23646
C    -1.07968   1.46045  -0.09927
O    -0.68215   2.39968  -0.80453
C    -1.76689   0.24311  -0.74828
C    -3.06564   0.73062  -1.39153
C    -0.83080  -0.46638  -1.74604
C    -0.23560  -1.65296  -0.96722
C     0.17001  -2.80630  -1.89949
C     0.98778  -1.28947  -0.15120
C     1.62682  -0.10586  -0.10255
C     2.80375   0.14570   0.71496
C     3.42459   1.33716   0.89032
C     4.63715   1.45273   1.77174
C     2.98162   2.62792   0.25764
C    -1.45215  -2.01582  -0.03061
C    -2.50046  -2.88907  -0.72589
C    -1.07387  -2.63600   1.30812
O    -2.06016  -0.73097   0.25965
H    -0.18982   3.33742   1.44886
H    -0.83551   2.62346   2.95385
H     0.72226   2.05331   2.29072
H    -1.29182   0.55092   1.65988
H    -3.58794  -0.11419  -1.86320
H    -3.72536   1.17699  -0.63155
H    -2.84851   1.48933  -2.15698
H    -1.42469  -0.84339  -2.58982
H    -0.07580   0.21141  -2.16146
H     1.02114  -2.49655  -2.52511
H     0.48370  -3.68970  -1.32106
H    -0.64965  -3.10342  -2.56833
H     1.40241  -2.11627   0.43658
H     1.25418   0.73190  -0.69260
H     3.21031  -0.72315   1.24679
H     5.49692   1.85369   1.20529
H     4.92897   0.48523   2.20635
H     4.45628   2.16524   2.59654
H     3.77769   3.02839  -0.39517
H     2.81148   3.39166   1.03667
H     2.06123   2.54252  -0.33291
H    -3.41234  -2.90263  -0.10994
H    -2.76666  -2.50442  -1.72052
H    -2.14813  -3.92460  -0.83732
H    -0.52309  -3.57663   1.15767
H    -0.44916  -1.95402   1.90099
H    -1.98317  -2.86244   1.88593
