23
Generated by autodE on: 2022-06-19. E = -351.521381 Ha
C     3.49090   1.30010   0.65012
C     2.53777   0.42447   0.26201
C     2.89627  -0.94107  -0.26604
C     1.12665   0.79430   0.35197
C     0.07863   0.00745   0.00059
C    -1.30438   0.42428   0.11237
C    -2.40538  -0.30131  -0.20856
C    -3.78266   0.27375  -0.03482
C    -2.37104  -1.70248  -0.74948
H     4.55390   1.04943   0.59434
H     3.22689   2.29067   1.03328
H     3.98524  -1.08936  -0.28069
H     2.51319  -1.08428  -1.29010
H     2.44681  -1.73641   0.35156
H     0.91882   1.79856   0.74063
H     0.27774  -0.99532  -0.38717
H    -1.46297   1.43769   0.50068
H    -4.38471  -0.35184   0.64858
H    -3.75840   1.29912   0.36239
H    -4.32669   0.28416  -0.99646
H    -1.35733  -2.10612  -0.86772
H    -2.93616  -2.38118  -0.08635
H    -2.87529  -1.74550  -1.73109
