23
Generated by autodE on: 2022-06-19. E = -479.948466 Ha
C     3.23307   0.79632   0.71417
N     1.88431   0.60156   0.23177
C     1.31479  -0.65141   0.22949
O     2.03359  -1.66652   0.42152
C    -0.09449  -0.75627  -0.03287
C    -0.81947  -2.05977  -0.01710
O    -0.71078   0.44363  -0.14146
C    -1.89787   0.87888  -0.37442
C    -3.05654   0.00130  -0.69803
C    -2.03164   2.36006  -0.39348
H     3.34228   0.59047   1.79603
H     3.93647   0.13834   0.18290
H     3.53288   1.83736   0.53266
H     1.25724   1.39676   0.25789
H    -0.05770  -2.84799   0.04550
H    -1.42048  -2.24790  -0.92079
H    -1.48578  -2.17546   0.85723
H    -3.18292  -0.82228   0.01714
H    -2.93440  -0.44263  -1.70247
H    -3.97432   0.60401  -0.70671
H    -2.76331   2.69329   0.36444
H    -1.06653   2.84766  -0.20033
H    -2.42147   2.69910  -1.37063
