46
Generated by autodE on: 2022-06-19. E = -831.474545 Ha. Imaginary frequency = -276.3 cm-1
C     2.32587  -2.02968  -2.94590
N     1.30814  -1.06803  -2.58219
C     0.01027  -1.23731  -2.95367
O    -0.32196  -2.16677  -3.71935
C    -0.98559  -0.33281  -2.37149
C    -2.31526  -0.17813  -3.04910
C    -1.45054  -1.56425  -0.41819
C    -1.30453  -0.72649   0.67400
C    -2.50687  -0.16643   1.39477
C     0.00517  -0.58865   1.28201
C     0.30164   0.06143   2.44113
C     1.64822   0.17107   2.96465
C     2.05085   0.80656   4.09451
C     3.50003   0.83048   4.49487
C     1.12461   1.53281   5.02995
C    -0.87357   1.53364  -0.82929
C    -2.27586   2.03858  -0.84701
C     0.16103   2.31299  -0.10557
O    -0.40059   0.67138  -1.68616
H     2.35704  -2.17879  -4.03614
H     3.30436  -1.65475  -2.61893
H     2.15775  -3.01686  -2.47994
H     1.51316  -0.38147  -1.86614
H    -2.38841   0.79229  -3.56932
H    -2.39359  -0.97360  -3.80178
H    -3.17993  -0.27321  -2.37867
H    -2.44565  -1.84352  -0.77114
H    -0.63747  -2.23734  -0.69273
H    -2.70213  -0.74134   2.31840
H    -2.37064   0.88047   1.70508
H    -3.41001  -0.22350   0.77125
H     0.83356  -1.04944   0.72899
H    -0.50864   0.52975   3.00673
H     2.42457  -0.31908   2.36307
H     4.13678   0.28733   3.78048
H     3.64263   0.38262   5.49552
H     3.87318   1.86833   4.57167
H     1.42339   2.59247   5.12446
H     0.07293   1.50386   4.71569
H     1.18883   1.10708   6.04758
H    -3.02628   1.26621  -1.02858
H    -2.37926   2.81637  -1.62726
H    -2.49268   2.52172   0.11527
H     1.16500   1.90791  -0.28746
H     0.13422   3.37676  -0.40481
H    -0.03630   2.27943   0.98068
