47
Generated by autodE on: 2022-06-13. E = -1496.348858 Ha
N     1.86359  -1.03307  -2.26049
C     1.46987  -0.16550  -1.59983
C     0.97875   1.01577  -0.87252
Cl    2.58444   1.95912  -0.56622
C     0.13370   1.82231  -1.89265
C    -0.37671   3.21532  -1.51285
C    -1.53295   3.27760  -0.49356
C    -1.14356   3.75097   0.91058
C     0.08061   3.02569   1.49821
C    -0.04254   1.54749   1.39413
C     0.32109   0.67379   0.43616
C    -0.30169  -0.69287   0.79214
C     0.66476  -1.87280   0.83655
C     2.03487  -1.65371   1.04375
C     2.91530  -2.72893   1.17607
C     2.43379  -4.04062   1.12096
C     1.06651  -4.26759   0.94011
C     0.18713  -3.19005   0.80151
C    -1.52470  -0.90135  -0.11084
C    -1.43121  -1.56139  -1.34483
C    -2.53209  -1.62723  -2.20473
C    -3.74601  -1.03759  -1.84361
C    -3.85125  -0.38570  -0.61091
C    -2.75073  -0.31891   0.24641
N    -0.72777  -0.46768   2.20893
O    -0.74552   0.96888   2.41439
H     0.74063   1.90317  -2.80671
H    -0.72283   1.17167  -2.13590
H    -0.72046   3.65361  -2.46219
H     0.46820   3.84590  -1.19210
H    -2.01422   2.28834  -0.43015
H    -2.30912   3.96141  -0.87174
H    -0.91265   4.82894   0.89303
H    -2.00504   3.62234   1.58569
H     0.20597   3.29586   2.55762
H     0.99047   3.33457   0.96997
H     2.41920  -0.63294   1.09304
H     3.98149  -2.54042   1.32155
H     3.12195  -4.88310   1.22241
H     0.67949  -5.28873   0.90791
H    -0.87846  -3.37798   0.66398
H    -0.49685  -2.03287  -1.64498
H    -2.43672  -2.14733  -3.16088
H    -4.60595  -1.08899  -2.51553
H    -4.79561   0.07649  -0.31351
H    -2.84346   0.20031   1.20009
H     0.06156  -0.75354   2.79533
