21
Generated by autodE on: 2022-06-13. E = -864.050914 Ha
N    -1.75140   2.44007  -1.86191
C    -1.05753   1.65905  -1.35844
C    -0.20773   0.64530  -0.72411
Cl    1.45002   0.81825  -1.56091
C    -0.04601   0.82688   0.70649
C     0.06944   0.42017   1.84419
C     0.12177  -0.48789   2.97727
C     0.36618  -1.90633   2.40080
C    -0.51597  -2.30293   1.19716
C    -0.03294  -1.91673  -0.23106
C    -0.75966  -0.78399  -0.97969
H     0.90577  -0.21691   3.70165
H    -0.84086  -0.45202   3.51534
H     1.42743  -1.99337   2.11435
H     0.20255  -2.62286   3.22135
H    -0.58855  -3.40126   1.21887
H    -1.54583  -1.93829   1.35646
H    -0.15628  -2.80540  -0.86822
H     1.05020  -1.71175  -0.22496
H    -0.71846  -0.95147  -2.06606
H    -1.82411  -0.76060  -0.69408
