26
Generated by autodE on: 2022-06-13. E = -632.226456 Ha
O    -1.11904   2.88922  -0.42052
N    -0.09547   2.12698  -0.37690
C    -0.03274   0.82885  -0.14895
C    -1.23062   0.03565   0.16557
C    -1.26454  -1.33104  -0.18209
C    -2.38142  -2.11330   0.10876
C    -3.48301  -1.55165   0.76258
C    -3.45917  -0.19926   1.11825
C    -2.35111   0.59272   0.81698
C     1.31027   0.21296  -0.23161
C     1.72270  -0.72061   0.73856
C     2.99991  -1.27802   0.68644
C     3.88722  -0.91577  -0.33347
C     3.48618   0.00555  -1.30476
C     2.20602   0.56220  -1.25988
H     0.81507   2.58108  -0.55129
H    -0.41202  -1.78003  -0.69327
H    -2.39149  -3.16744  -0.17753
H    -4.35696  -2.16536   0.99314
H    -4.31375   0.24597   1.63317
H    -2.34274   1.64645   1.08641
H     1.04058  -0.99874   1.54380
H     3.30729  -1.99573   1.45050
H     4.88632  -1.35569  -0.37339
H     4.16697   0.28322  -2.11266
H     1.89249   1.25516  -2.04419
