47
Generated by autodE on: 2022-06-13. E = -1496.270014 Ha. Imaginary frequency = -288.2 cm-1
N     2.08722  -1.03793  -1.87421
C     1.62777  -0.05061  -1.47405
C     1.00668   1.19831  -1.00291
Cl    2.51887   2.36280  -0.92108
C     0.03935   1.72710  -2.08736
C    -0.41531   3.18815  -2.00389
C    -1.31000   3.66396  -0.84425
C    -0.60506   4.09375   0.46265
C    -0.71645   3.07691   1.60811
C    -0.19556   1.77183   1.17975
C     0.38958   1.08456   0.30788
C    -0.41319  -1.14806   1.17233
C     0.61193  -2.20815   1.02756
C     1.95626  -1.91820   1.32369
C     2.93189  -2.90966   1.22495
C     2.57894  -4.20189   0.82373
C     1.24511  -4.49856   0.52425
C     0.26587  -3.50964   0.62384
C    -1.57746  -1.07626   0.26309
C    -1.44737  -1.49858  -1.07398
C    -2.53235  -1.44097  -1.94807
C    -3.77324  -0.97568  -1.50193
C    -3.91837  -0.57284  -0.17030
C    -2.83341  -0.61837   0.70534
N    -0.39842  -0.51329   2.34440
O    -0.95457   0.65137   2.51552
H     0.52937   1.57932  -3.06215
H    -0.83116   1.05119  -2.06039
H    -0.97568   3.35139  -2.93900
H     0.47016   3.84075  -2.07064
H    -2.07675   2.89966  -0.62628
H    -1.86340   4.53658  -1.22570
H     0.46004   4.29344   0.26214
H    -1.03595   5.04266   0.81983
H    -1.77233   2.95217   1.90568
H    -0.18518   3.43635   2.50599
H     2.23929  -0.89722   1.58822
H     3.97411  -2.66792   1.44443
H     3.34425  -4.97672   0.73745
H     0.96424  -5.50785   0.21521
H    -0.77446  -3.75081   0.40167
H    -0.48460  -1.85381  -1.43872
H    -2.40534  -1.76054  -2.98482
H    -4.62315  -0.93004  -2.18668
H    -4.88589  -0.21755   0.19188
H    -2.95643  -0.28883   1.73528
H     0.39297  -0.72150   2.96358
