36
Generated by autodE on: 2022-06-11. E = -804.657155 Ha
C     3.19362   0.66608   2.26741
N     2.71489  -0.07183   1.11334
C     2.17926   0.55672   0.06864
O     2.13584   1.77935  -0.11037
C     1.69142  -0.29273  -1.08827
C     2.64555  -0.53295  -2.20462
N     0.43407  -0.60966  -1.15277
C    -0.14391  -1.15775  -2.38869
C    -0.38915  -0.63338   0.02886
C     0.02183  -1.52379   1.03466
C    -0.79285  -1.65868   2.30684
O     1.08689  -2.22573   0.95745
C    -1.60056   0.19325  -0.05596
C    -2.86271  -0.21604   0.42663
C    -3.97998   0.61412   0.31542
C    -3.88064   1.86464  -0.30379
C    -2.64343   2.27644  -0.81128
C    -1.52164   1.45670  -0.68658
H     3.84058   1.49404   1.94599
H     2.36126   1.08860   2.85519
H     3.77185  -0.00892   2.91092
H     2.39976  -1.05139   1.21924
H     2.44830   0.18003  -3.02413
H     2.53092  -1.54930  -2.60970
H     3.67785  -0.38847  -1.86239
H     0.21640  -0.60786  -3.26665
H     0.13313  -2.21933  -2.47525
H    -1.23355  -1.07573  -2.32436
H    -1.41131  -0.77998   2.52960
H    -1.45438  -2.53924   2.24888
H    -0.09112  -1.82988   3.13691
H    -2.97811  -1.20513   0.86991
H    -4.94378   0.26986   0.69942
H    -4.75899   2.50765  -0.39621
H    -2.54768   3.24981  -1.29936
H    -0.55555   1.80488  -1.05888
