36
Generated by autodE on: 2022-07-27. E = -804.653402 Ha
C     1.60091   1.40157  -4.62693
N     1.67865   1.01364  -3.22980
C     0.58170   0.72527  -2.51964
O    -0.56641   0.75044  -2.97595
C     0.79297   0.40310  -1.06071
C     1.31901   1.46453  -0.17106
N     0.37260  -0.74991  -0.59933
C    -0.02860  -1.81801  -1.53618
C     0.13908  -0.96825   0.79112
C     0.73503  -2.13431   1.34406
C     0.35646  -2.60270   2.73826
O     1.56684  -2.83075   0.70131
C    -0.71857   0.01077   1.47167
C    -1.76359   0.65984   0.77064
C    -2.60186   1.57792   1.40131
C    -2.43383   1.88097   2.75793
C    -1.39456   1.26673   3.46299
C    -0.54187   0.36058   2.82885
H     2.61818   1.50741  -5.02120
H     1.06945   2.35924  -4.74457
H     1.06623   0.63923  -5.21341
H     2.58332   0.98830  -2.76760
H     0.49782   2.11810   0.17533
H     1.78276   1.02033   0.72183
H     2.03658   2.09461  -0.71453
H    -1.06123  -1.63429  -1.85979
H     0.03781  -2.77469  -1.01605
H     0.63908  -1.83291  -2.40669
H    -0.63727  -2.27039   3.06598
H     0.39627  -3.70244   2.73818
H     1.09565  -2.25060   3.47686
H    -1.91580   0.44616  -0.29001
H    -3.40035   2.05647   0.82835
H    -3.09437   2.59665   3.25271
H    -1.22947   1.50949   4.51600
H     0.29057  -0.06338   3.39018
