33
Generated by autodE on: 2022-06-11. E = -711.071599 Ha
C     1.27967  -3.54792  -1.37970
O     1.39444  -2.26002  -0.74590
C     0.92747  -1.21642  -1.41592
O     0.42418  -1.26176  -2.51223
C     1.10554   0.09311  -0.59416
C     2.55146   0.30196  -0.40160
N     3.68797   0.48929  -0.26566
C     0.39395  -0.03382   0.68378
C    -0.54133   0.13758   1.43644
C    -1.78807   0.63733   2.02300
C    -2.61024  -0.48010   2.68308
C    -1.47832   1.73978   3.05298
C    -2.56877   1.22354   0.80066
C    -1.77308   2.09418  -0.19437
C    -1.04709   1.37778  -1.36899
C     0.49368   1.31673  -1.35086
H     0.22269  -3.78109  -1.56974
H     1.83863  -3.55463  -2.32587
H     1.71050  -4.26723  -0.67476
H    -2.08399  -0.89110   3.55831
H    -3.57910  -0.08002   3.02062
H    -2.80253  -1.30105   1.97575
H    -0.87463   1.34159   3.88265
H    -2.42015   2.13244   3.46694
H    -0.92481   2.57309   2.59562
H    -3.02594   0.38399   0.25119
H    -3.40108   1.81438   1.21796
H    -1.06032   2.73498   0.35122
H    -2.49965   2.78944  -0.64282
H    -1.45764   0.36486  -1.50517
H    -1.30236   1.91963  -2.29264
H     0.88355   1.27885  -2.37812
H     0.89707   2.22592  -0.88094
