69
Generated by autodE on: 2022-06-11. E = -1515.700961 Ha. Imaginary frequency = -297.4 cm-1
C    -5.91617  -6.04048   0.73309
N    -6.57312  -6.12211   2.01947
C    -7.71633  -5.45840   2.27444
O    -8.28003  -4.76560   1.41547
C    -8.23488  -5.55315   3.69419
C    -9.06881  -4.35554   4.08380
C    -6.26965  -5.23963   4.93347
C    -6.15912  -6.32951   5.54123
C    -5.23892  -7.39219   6.02418
C    -5.23765  -8.48105   5.02641
N    -5.12907  -9.25488   4.16932
C    -5.56770  -7.89478   7.43529
O    -5.86211  -7.15222   8.34502
O    -5.41044  -9.20577   7.55285
C    -5.56026  -9.77231   8.86816
C    -3.73533  -6.90268   6.04384
C    -3.37158  -5.77447   7.00660
C    -4.13091  -4.45022   6.85203
C    -4.22426  -3.91720   5.40957
C    -5.65562  -3.86883   4.79747
C    -6.49172  -2.84389   5.59528
C    -5.52987  -3.39082   3.34412
C    -8.47277  -7.11232   5.50722
C    -8.41506  -8.49965   6.00452
C    -8.78867  -8.72761   7.45627
O    -8.06807  -9.47291   5.32630
C    -9.15700  -6.13994   6.42666
C   -10.55107  -6.00406   6.29137
C   -11.27052  -5.13539   7.11295
C   -10.60770  -4.39330   8.09612
C    -9.22768  -4.54496   8.25881
C    -8.50820  -5.41451   7.43432
N    -8.48415  -6.82292   4.15132
C    -8.50432  -7.93662   3.17388
H    -6.57525  -6.40252  -0.07180
H    -5.01207  -6.66155   0.75662
H    -5.62964  -5.00241   0.49447
H    -6.08927  -6.56348   2.79543
H   -10.11430  -4.53089   3.77409
H    -9.06969  -4.12593   5.14837
H    -8.70972  -3.47744   3.53617
H    -4.81314  -9.34093   9.54887
H    -6.57044  -9.58009   9.25246
H    -5.39488 -10.84850   8.74823
H    -3.11994  -7.78599   6.27453
H    -3.50703  -6.61435   5.00827
H    -2.29534  -5.59108   6.84442
H    -3.46489  -6.12426   8.04659
H    -5.13838  -4.56423   7.27667
H    -3.62745  -3.70620   7.48937
H    -3.83157  -2.88904   5.36181
H    -3.58449  -4.51219   4.73855
H    -5.94723  -1.88693   5.62767
H    -6.66562  -3.17430   6.62886
H    -7.46552  -2.66177   5.12911
H    -6.50683  -3.27164   2.85824
H    -5.03196  -2.40864   3.33154
H    -4.92540  -4.08536   2.74403
H    -8.49714  -9.74880   7.73247
H    -9.87938  -8.61802   7.57120
H    -8.32618  -8.00649   8.13982
H   -11.07175  -6.57867   5.52226
H   -12.35105  -5.03619   6.98421
H   -11.16591  -3.70725   8.73767
H    -8.70211  -3.97926   9.03199
H    -7.43568  -5.52639   7.57015
H    -8.81702  -7.54153   2.20296
H    -9.25307  -8.66358   3.49935
H    -7.53955  -8.44531   3.08475
