58
Generated by autodE on: 2022-06-09. E = -1525.048343 Ha
C     5.45452  -2.56032  -0.73193
N     4.53050  -1.70084  -0.02257
C     3.21763  -1.96418   0.00380
O     2.71046  -2.97322  -0.52061
C     2.32901  -1.00192   0.70557
C     2.40011   0.31387   1.02392
C     3.49829   1.28898   0.84007
O     4.69175   0.94768   0.73352
N     3.13473   2.58389   0.80482
C     4.10981   3.63896   0.60605
C     0.96739   0.68564   1.43701
O     0.52576  -0.52674   2.04296
C     0.87963  -1.39358   0.96527
C     0.04460  -0.78460  -0.20690
C     0.19432   0.73053   0.07612
C    -1.26224   1.22944   0.02354
C    -1.57078   1.65832  -1.46200
C    -2.93563   1.36351  -1.99869
O    -0.71280   2.22806  -2.10412
C    -1.48231   2.52244   0.80709
O    -0.57863   3.26334   1.13284
O    -2.76794   2.79147   0.99468
C    -3.08814   4.02176   1.67012
N    -2.11409   0.09206   0.38792
C    -2.50908  -0.05101   1.79479
N    -1.38497  -1.02060  -0.09951
C    -2.04104  -2.06385  -0.72498
C    -3.45042  -2.08596  -0.82779
C    -4.09280  -3.14967  -1.46147
C    -3.36628  -4.21896  -1.99745
C    -1.97198  -4.20694  -1.88125
C    -1.30791  -3.15358  -1.25172
H     6.47755  -2.20425  -0.55878
H     5.37525  -3.59951  -0.37723
H     5.25924  -2.56256  -1.81769
H     4.83047  -0.78338   0.33366
H     2.15425   2.83896   0.87060
H     4.64343   3.51176  -0.34900
H     3.58851   4.60329   0.59821
H     4.85757   3.64224   1.41429
H     0.83645   1.53600   2.10977
H     0.67584  -2.44358   1.19217
H     0.42179  -1.09941  -1.18790
H     0.78141   1.26443  -0.67530
H    -3.70931   1.64652  -1.27218
H    -3.07365   1.89422  -2.94951
H    -3.03406   0.27877  -2.16261
H    -2.70686   4.87760   1.09594
H    -4.18143   4.05384   1.72829
H    -2.64890   4.02457   2.67734
H    -2.93325  -1.05623   1.91980
H    -3.29665   0.67680   2.02367
H    -1.67609   0.06710   2.50490
H    -4.02738  -1.26169  -0.41163
H    -5.18368  -3.13952  -1.53432
H    -3.87722  -5.04970  -2.48855
H    -1.38272  -5.03555  -2.28292
H    -0.22185  -3.18473  -1.16012
