58
Generated by autodE on: 2022-06-09. E = -1524.966505 Ha. Imaginary frequency = -231.5 cm-1
C     5.37953  -2.75035  -0.62613
N     4.43752  -1.80530  -0.06600
C     3.12853  -1.88309  -0.34290
O     2.62868  -2.78480  -1.04102
C     2.23584  -0.84020   0.22014
C     2.38610   0.42412   0.67965
C     3.60534   1.23325   0.88141
O     4.74334   0.73225   0.97506
N     3.42172   2.56354   0.96540
C     4.53688   3.47227   1.14680
C     0.92885   0.95605   0.81662
O     0.26319  -0.24520   1.21507
C     0.71010  -1.03767   0.10893
C     0.25590  -0.17007  -1.08007
C     0.38930   1.12802  -0.61666
C    -1.93903   1.64281  -0.31486
C    -1.93311   2.36551  -1.60197
C    -2.17733   1.66761  -2.91148
O    -1.74586   3.58568  -1.57374
C    -2.08444   2.57536   0.85950
O    -1.17632   3.18189   1.38532
O    -3.36133   2.69840   1.22852
C    -3.63208   3.55281   2.35292
N    -2.30977   0.34198  -0.16323
C    -2.70209  -0.14945   1.17959
N    -1.89551  -0.46518  -1.11241
C    -2.40797  -1.75813  -1.20509
C    -3.76273  -2.05477  -0.93370
C    -4.25932  -3.34171  -1.13849
C    -3.42919  -4.36085  -1.61676
C    -2.09085  -4.06954  -1.90218
C    -1.58031  -2.78654  -1.70692
H     5.44593  -2.66151  -1.72396
H     6.37192  -2.56259  -0.19776
H     5.08250  -3.78471  -0.39388
H     4.76171  -0.95885   0.42121
H     2.48943   2.95229   0.87189
H     4.15226   4.49733   1.20225
H     5.08380   3.24396   2.07479
H     5.24856   3.40176   0.30896
H     0.76035   1.77202   1.52374
H     0.35267  -2.06937   0.16219
H     0.34618  -0.49838  -2.11214
H     0.60030   2.01125  -1.21644
H    -2.37807   2.43799  -3.66860
H    -3.01437   0.95916  -2.84703
H    -1.29087   1.08849  -3.20711
H    -3.32129   4.58354   2.13149
H    -4.71519   3.50603   2.51193
H    -3.09823   3.19020   3.24302
H    -2.11608   0.36907   1.94511
H    -3.77181   0.02329   1.34564
H    -2.48151  -1.21807   1.24089
H    -4.43103  -1.26570  -0.58750
H    -5.31170  -3.54585  -0.92585
H    -3.82195  -5.36801  -1.77140
H    -1.42936  -4.85215  -2.28178
H    -0.53422  -2.58440  -1.93326
