17
Generated by autodE on: 2022-07-26. E = -509.639752 Ha
C     3.63560   1.06510   0.50793
O     2.26990   0.83029   0.86393
C     1.47983   0.33566  -0.10045
O     1.87355   0.08449  -1.23847
N     0.20496   0.16313   0.37634
N    -0.57068  -0.32030  -0.57375
C    -1.84577  -0.60260  -0.46417
C    -2.62856  -1.14682  -1.61167
C    -2.47215  -0.37096   0.79498
N    -3.03638  -0.20173   1.79857
H     4.11683   1.47005   1.40625
H     3.70559   1.79150  -0.31545
H     4.12804   0.12802   0.20801
H    -0.12108  -0.48930  -1.49398
H    -3.46257  -0.47104  -1.85911
H    -3.05789  -2.12692  -1.34984
H    -1.98360  -1.26051  -2.49382
