17
Generated by autodE on: 2022-05-28. E = -509.640544 Ha
C     3.83563   0.77480   0.14586
O     2.47655   1.15899  -0.08729
C     1.55131   0.20763   0.08880
O     1.81207  -0.94325   0.43096
N     0.29756   0.71516  -0.16885
N    -0.60873  -0.22095   0.00344
C    -1.89977  -0.04266  -0.16643
C    -2.44350   1.28009  -0.58049
C    -2.74092  -1.16507   0.06312
N    -3.46245  -2.06197   0.24168
H     4.44010   1.66796  -0.05189
H     3.97482   0.44862   1.18729
H     4.13227  -0.03884  -0.53249
H    -0.25795  -1.15448   0.29238
H    -3.53482   1.24020  -0.67508
H    -2.16499   2.04758   0.16038
H    -2.00013   1.58152  -1.54389
