24
Generated by autodE on: 2022-05-28. E = -626.324848 Ha. Imaginary frequency = -431.9 cm-1
C     3.75053  -0.01059  -0.59830
O     2.39161  -0.37309  -0.33292
C     1.63418   0.53949   0.31438
O     2.06732   1.62427   0.67817
N     0.33283   0.15868   0.52739
N    -0.01184  -1.02222   0.01043
C    -1.32829  -1.29917  -0.04054
C    -1.78812  -2.49050  -0.83281
C    -2.09401  -0.96856   1.13816
N    -2.75309  -0.76157   2.07306
C    -1.93696   0.44460  -1.05844
C    -1.13584   1.37115  -0.82068
C    -0.48553   2.67607  -0.78854
H     4.28469   0.20102   0.33946
H     4.20211  -0.87352  -1.10214
H     3.79530   0.87379  -1.25076
H     0.55849  -1.40571  -0.75205
H    -1.19654  -2.57862  -1.75486
H    -1.68177  -3.41430  -0.24187
H    -2.84749  -2.37464  -1.09858
H    -2.83537   0.08546  -1.54422
H     0.48130   2.65673  -1.31463
H    -0.28765   2.99480   0.24580
H    -1.12953   3.42980  -1.27227
