36
Generated by autodE on: 2022-06-17. E = -770.605230 Ha
C     2.90339  -2.26141  -0.47576
O     1.93044  -1.22060  -0.65912
C     1.39656  -0.69811   0.44250
O     1.70148  -1.03382   1.56670
C     0.37370   0.40606   0.10137
C     1.18225   1.71081  -0.03548
C     0.90254   2.57214  -1.22545
O     2.00545   1.98797   0.81859
O    -0.30523   0.12134  -1.10024
C    -1.54363  -0.60995  -0.83978
C    -1.39733  -2.01631  -1.41424
C    -2.65681   0.14716  -1.55669
C    -1.65648  -0.63897   0.71361
C    -3.07306  -0.62038   1.27246
C    -0.71886   0.49169   1.19833
C    -1.35993   1.87179   1.33867
H     3.75938  -1.88843   0.10450
H     2.45011  -3.11672   0.04550
H     3.22340  -2.55573  -1.48168
H     1.17116   2.01664  -2.13833
H    -0.17349   2.79024  -1.29730
H     1.48524   3.49975  -1.15854
H    -1.26497  -1.97971  -2.50680
H    -0.52917  -2.52859  -0.97359
H    -2.29823  -2.61078  -1.19609
H    -2.40215   0.24393  -2.62334
H    -3.61058  -0.39517  -1.48370
H    -2.79615   1.15496  -1.14274
H    -1.18663  -1.58120   1.03883
H    -3.64700  -1.48264   0.89836
H    -3.05248  -0.68687   2.37161
H    -3.62237   0.29191   1.00130
H    -0.26765   0.21881   2.16096
H    -2.16033   1.84073   2.09169
H    -1.79692   2.23478   0.39764
H    -0.62214   2.61311   1.68104
