24
Generated by autodE on: 2022-06-17. E = -613.228592 Ha
C     2.19086  -2.78966   0.18434
O     1.14321  -1.83049   0.33041
C     1.35033  -0.62012  -0.25744
O     2.37355  -0.38276  -0.89803
C     0.25128   0.27976  -0.05900
O    -0.74082  -0.21433   0.82364
C    -1.99324  -0.16052   0.57419
C    -2.87914  -0.52198   1.69600
C    -2.52616   0.18428  -0.75078
C     0.16059   1.65960  -0.39340
C     1.26359   2.28221  -1.22320
O    -0.80019   2.36426  -0.00927
H     2.36487  -3.02732  -0.87616
H     1.85603  -3.68868   0.71661
H     3.12981  -2.42288   0.62636
H    -2.30708  -0.77836   2.59543
H    -3.54757   0.33312   1.89850
H    -3.52904  -1.35762   1.38803
H    -2.61457   1.28290  -0.81423
H    -1.81673  -0.12286  -1.53571
H    -3.51676  -0.26676  -0.88902
H     2.23558   2.21072  -0.71319
H     1.01020   3.33774  -1.39131
H     1.37315   1.76840  -2.18978
