36
Generated by autodE on: 2022-06-17. E = -770.515714 Ha. Imaginary frequency = -321.1 cm-1
C     2.76562  -2.52066  -0.56619
O     1.85427  -1.46477  -0.87894
C     1.68552  -0.51032   0.06398
O     2.40433  -0.44052   1.05337
C     0.62691   0.42979  -0.26928
C     0.81052   1.84932  -0.09525
C    -0.13241   2.76995  -0.84356
O     1.68882   2.32629   0.64262
O    -0.38404   0.11352  -1.14151
C    -1.24807  -0.87848  -1.05301
C    -0.84519  -2.27402  -0.69528
C    -2.38786  -0.71171  -2.00173
C    -2.16868  -0.33491   0.99047
C    -3.23726   0.69699   0.74480
C    -1.03481  -0.07634   1.72657
C    -0.74551   1.19783   2.45261
H     3.78788  -2.13370  -0.44417
H     2.46292  -3.03649   0.35780
H     2.72810  -3.21671  -1.41287
H    -0.10384   2.57596  -1.92683
H    -1.17168   2.61977  -0.51688
H     0.16415   3.80799  -0.64447
H    -0.24329  -2.68235  -1.52422
H    -0.24832  -2.34316   0.22029
H    -1.74805  -2.88868  -0.58893
H    -2.10310  -1.13999  -2.98019
H    -3.26863  -1.26331  -1.64744
H    -2.63494   0.34833  -2.14258
H    -2.47978  -1.37905   0.91914
H    -3.99205   0.33572   0.03310
H    -3.76539   0.94434   1.68292
H    -2.82294   1.63777   0.35316
H    -0.39867  -0.92525   1.99372
H    -1.17171   1.12908   3.47191
H    -1.19529   2.07700   1.97126
H     0.33369   1.36828   2.56412
