14
Generated by autodE on: 2022-06-17. E = -270.683225 Ha
C    -1.35450   0.80513   0.20676
C    -0.65697  -0.34581  -0.46000
C    -1.49843  -1.19602  -1.35834
C     0.66244  -0.62902  -0.28057
C     1.58698   0.11424   0.56228
O     1.32907   1.10652   1.23997
H    -2.41466   0.84676  -0.07944
H    -0.87536   1.76134  -0.05710
H    -1.28320   0.72620   1.30323
H    -1.94194  -0.57403  -2.15580
H    -0.93371  -2.01981  -1.81610
H    -2.34976  -1.61188  -0.79107
H     1.09449  -1.48698  -0.80390
H     2.62718  -0.29314   0.56450
