44
Generated by autodE on: 2022-10-21. E = -1133.101287 Ha
C     3.63193  -1.14204   2.43058
N     2.59479  -0.41004   1.73009
C     2.21669  -0.74169   0.49169
O     2.73161  -1.65156  -0.16260
C     1.09533   0.13081  -0.11579
C     1.68907   0.93988  -1.31647
C     2.48073   0.23197  -2.37522
O     1.51738   2.13967  -1.33048
O     0.64709   1.02927   0.88121
C    -0.75152   1.29961   0.82679
C    -1.23718   1.52680   2.25759
C    -0.96249   2.57193   0.08449
N    -1.15639   3.61426  -0.38496
C    -1.40446   0.09725   0.03512
O    -2.22024   0.56217  -1.01079
C    -3.49540   1.07845  -0.63682
C    -2.05012  -0.99823   0.92344
C    -2.72861  -2.03642   0.00044
C    -1.53072  -2.75985  -0.67286
C    -0.30298  -2.09678  -0.01974
C    -0.81773  -1.79214   1.39982
C    -0.16331  -0.67492  -0.58001
F    -0.21771  -0.66264  -1.96598
H     3.84755  -0.63275   3.37741
H     4.55169  -1.18355   1.82814
H     3.31804  -2.17643   2.64518
H     2.07126   0.32185   2.20034
H     2.43929   0.82418  -3.29953
H     3.52982   0.18444  -2.03890
H     2.14007  -0.79385  -2.54484
H    -2.31114   1.75584   2.26323
H    -1.05281   0.63260   2.86457
H    -0.68991   2.37244   2.69733
H    -4.15106   0.29715  -0.22266
H    -3.41896   1.89784   0.09466
H    -3.94951   1.47307  -1.55572
H    -2.70886  -0.60356   1.70422
H    -3.31832  -2.72737   0.61937
H    -3.40732  -1.58401  -0.73068
H    -1.52576  -3.83546  -0.44773
H    -1.52235  -2.64683  -1.76453
H     0.61874  -2.67852  -0.10218
H    -1.09616  -2.70537   1.94427
H    -0.11789  -1.21991   2.02167
