23
Generated by autodE on: 2022-10-26. E = -646.281330 Ha
C     1.88349  -2.68396   2.15111
N     1.07525  -1.62755   1.57897
C     1.24328  -1.23940   0.29342
O     2.07671  -1.79061  -0.44609
C     0.36912  -0.15851  -0.19128
O    -0.43463   0.34717   0.78681
C    -1.50657   1.05972   0.71164
C    -1.99726   1.68273   1.96219
C    -2.28705   1.12593  -0.47509
N    -3.07149   1.12172  -1.33717
C     0.53829   0.62403  -1.38544
C     1.58173   0.23187  -2.40129
O    -0.13079   1.66227  -1.55183
H     2.95513  -2.42583   2.14476
H     1.76367  -3.62711   1.59413
H     1.56819  -2.84694   3.18898
H     0.39089  -1.15844   2.16028
H    -3.08209   1.53302   2.07253
H    -1.45505   1.26531   2.82129
H    -1.81634   2.77222   1.92290
H     1.57809   0.98471  -3.20066
H     2.57999   0.16341  -1.94737
H     1.35377  -0.75948  -2.81985
