21
Generated by autodE on: 2022-10-21. E = -486.709702 Ha
C     2.85832  -0.10537  -0.28714
O     1.72046  -0.88500  -0.65150
C     0.53538  -0.53596  -0.10237
C     0.16046   0.40934   0.78184
F     0.92008   1.35709   1.37753
C    -1.35062   0.46932   0.81259
C    -1.80545   1.06305  -0.56177
C    -1.38319  -0.04770  -1.57009
C    -0.75070  -1.13759  -0.64339
C    -1.66542  -1.02503   0.59326
H     3.71742  -0.53398  -0.81967
H     2.72887   0.94674  -0.58766
H     3.04070  -0.15404   0.79851
H    -1.77836   0.95865   1.69736
H    -1.32300   2.03080  -0.76046
H    -2.89476   1.22048  -0.57042
H    -2.25397  -0.45956  -2.10202
H    -0.66367   0.30396  -2.32350
H    -0.62874  -2.12620  -1.10468
H    -1.34168  -1.66077   1.42969
H    -2.72510  -1.21470   0.36247
