24
Generated by autodE on: 2022-06-16. E = -518.129151 Ha
C     0.95786   1.73135   1.68041
C     0.73102   1.34736   0.24726
O     1.19424   1.98927  -0.67951
C    -0.10340   0.07538  -0.01439
C     0.86659  -1.12692   0.09911
C     2.01991  -1.21247  -0.85975
O     0.66411  -1.98758   0.93737
C    -0.75408   0.09334  -1.42897
C    -2.07716  -0.63703  -1.20307
C    -2.46125  -0.14747   0.19333
N    -1.19962  -0.06576   0.95406
H     1.21611   0.84685   2.28322
H     0.02406   2.13567   2.09950
H     1.74970   2.48918   1.74407
H     2.88183  -1.67196  -0.35614
H     2.29134  -0.24041  -1.28895
H     1.72183  -1.87805  -1.68750
H    -0.11977  -0.36081  -2.20073
H    -0.92988   1.13879  -1.72212
H    -1.91555  -1.72783  -1.19135
H    -2.82987  -0.40741  -1.97210
H    -3.17278  -0.80474   0.71345
H    -2.92686   0.85132   0.12272
H    -1.04084  -0.95547   1.42977
