18
Generated by autodE on: 2022-06-16. E = -439.448099 Ha
C    -0.97840   2.42486   0.17649
N    -0.03582   1.54279   0.23697
C     0.03382   0.16231   0.03268
C    -1.15767  -0.55819  -0.33744
C    -1.13021  -2.05153  -0.58330
O    -2.24563   0.03764  -0.46701
C     1.39612  -0.29409   0.25299
C     1.80096  -1.73949   0.12068
O     2.26922   0.54251   0.56836
H    -1.98935   2.12523  -0.08451
H    -0.70839   3.45952   0.39609
H     0.91679   1.86494   0.48928
H    -2.14696  -2.36252  -0.85667
H    -0.44292  -2.31741  -1.39927
H    -0.81571  -2.60614   0.31242
H     2.87313  -1.81431   0.34275
H     1.24251  -2.37864   0.81959
H     1.61593  -2.11776  -0.89479
