24
Generated by autodE on: 2022-06-16. E = -518.061386 Ha. Imaginary frequency = -470.4 cm-1
C     0.05320   2.08548   1.51662
C     0.70111   1.19302   0.47721
O     1.61768   1.66071  -0.21349
C     0.25255  -0.18568   0.33607
C     1.03550  -1.24293  -0.31932
C     2.25225  -0.91317  -1.13899
O     0.66995  -2.42355  -0.20580
C    -1.29400   0.48348  -1.55720
C    -2.49904   0.18961  -0.94498
C    -2.04825  -0.13793   1.06718
N    -0.83401  -0.70724   1.01142
H    -0.81864   2.59795   1.07817
H    -0.28004   1.54014   2.41051
H     0.78273   2.85658   1.79964
H     2.66946  -1.84884  -1.53516
H     3.00422  -0.38775  -0.53245
H     1.99262  -0.23596  -1.96544
H    -0.75393  -0.26936  -2.13396
H    -0.93337   1.51105  -1.64336
H    -3.19069   1.00430  -0.71132
H    -2.96242  -0.78390  -1.13133
H    -2.85240  -0.77483   1.44438
H    -2.12265   0.91803   1.31023
H    -0.82708  -1.72935   0.92449
