27
Generated by autodE on: 2022-06-16. E = -669.558963 Ha
C    -2.43104   1.83844   0.33326
N    -1.68442   1.01723  -0.61338
O    -0.39442   1.63663  -0.79433
C     0.54718   1.07956   0.14424
C     1.82615   0.74288  -0.60702
O     2.21773   1.44514  -1.52549
C     2.58713  -0.44649  -0.17233
C     2.04988  -1.39134   0.62255
C     0.66975  -1.30514   1.14805
O     0.21685  -2.20857   1.84030
C    -0.16670  -0.09534   0.81669
C    -1.35545  -0.35878  -0.17232
C    -0.91147  -1.16241  -1.39896
C    -2.52926  -1.05019   0.50927
H    -2.45638   2.86427  -0.05760
H    -3.46496   1.47317   0.38746
H    -2.00515   1.86228   1.35341
H     0.83043   1.84217   0.89253
H     3.59465  -0.54820  -0.58424
H     2.60710  -2.28970   0.90073
H    -0.60108   0.23069   1.77160
H    -0.56401  -2.16423  -1.10636
H    -0.10266  -0.66144  -1.94929
H    -1.76238  -1.28032  -2.08570
H    -2.82720  -0.54695   1.43875
H    -2.23967  -2.07896   0.76359
H    -3.39578  -1.09389  -0.16784
