15
Generated by autodE on: 2022-07-27. E = -287.902184 Ha
C     0.81993  -1.59250  -0.74667
C    -0.04181  -0.67324   0.04950
C    -1.04931  -1.23410   1.00530
N     0.08827   0.62332  -0.09260
C    -0.76032   1.54451   0.69234
O     0.93223   1.19758  -0.89559
H     1.41102  -2.23586  -0.07222
H     1.49634  -1.03315  -1.40120
H     0.19294  -2.26624  -1.35567
H    -0.86319  -0.90613   2.04190
H    -1.00731  -2.33094   0.98402
H    -2.07741  -0.92762   0.74872
H    -0.46584   2.55750   0.40458
H    -1.82150   1.37791   0.46296
H    -0.59784   1.39303   1.76799
