15
Generated by autodE on: 2022-06-16. E = -287.903604 Ha
C    -0.57877   1.82050   0.40329
C    -0.58632   0.35050   0.10350
C    -1.85253  -0.43436   0.01347
N     0.51858  -0.32403  -0.09510
C     1.85715   0.27620  -0.04428
O     0.52269  -1.59640  -0.35559
H    -1.61007   2.17664   0.51911
H    -0.10821   2.40548  -0.40395
H    -0.03624   2.04907   1.33569
H    -2.72795   0.19887   0.20315
H    -1.94621  -0.90048  -0.98298
H    -1.83946  -1.26964   0.73495
H     2.43357  -0.26468   0.71854
H     2.33027   0.11943  -1.02340
H     1.82931   1.34329   0.19302
