12
Generated by autodE on: 2022-06-16. E = -381.636094 Ha
O     0.26371  -2.64895   0.15716
C     0.14229  -1.43046   0.08450
C     1.32891  -0.54309   0.02464
C     1.19633   0.79251  -0.05439
C    -0.14229   1.43046  -0.08459
O    -0.26371   2.64895  -0.15712
C    -1.32891   0.54309  -0.02463
C    -1.19633  -0.79251   0.05440
H     2.30402  -1.03513   0.04816
H     2.05566   1.46565  -0.09950
H    -2.30402   1.03514  -0.04810
H    -2.05565  -1.46565   0.09956
