25
Generated by autodE on: 2022-06-02. E = -668.367390 Ha
C     3.67578   0.71387   0.83723
N     2.34090   0.60858   0.28784
C     1.61724  -0.51126   0.43189
O     2.04462  -1.53678   0.98872
C     0.23924  -0.51716  -0.12258
C    -0.67517   0.42652  -0.45621
C    -0.61887   1.89750  -0.43053
C    -1.93551   2.61910  -0.44115
O     0.44743   2.51516  -0.40805
C    -1.97034  -0.39202  -0.73564
C    -2.44704  -0.95707   0.62098
C    -1.53553  -1.87793   0.94566
C    -0.52490  -1.85752  -0.22138
O    -1.39182  -1.56345  -1.32695
H     4.30947  -0.11394   0.48362
H     4.12048   1.66389   0.51646
H     3.66801   0.68050   1.93998
H     1.86056   1.43476  -0.08536
H    -1.77853   3.69297  -0.27997
H    -2.43228   2.46065  -1.41307
H    -2.60688   2.20870   0.33048
H    -2.71848   0.07372  -1.38376
H    -3.31473  -0.60140   1.17508
H    -1.43844  -2.48739   1.84298
H     0.08756  -2.74890  -0.38373
