46
Generated by autodE on: 2022-06-02. E = -1296.473185 Ha. Imaginary frequency = -402.1 cm-1
C    -2.21507   0.69671   3.57151
N    -1.50824   0.22277   2.40045
C    -2.15090  -0.05159   1.26183
O    -3.38728   0.00090   1.15450
C    -1.33866  -0.43316   0.04745
C    -2.19049  -1.23662  -0.99775
C    -2.47101  -2.60500  -0.34599
C    -1.29758  -3.24733  -0.37430
C    -0.32601  -2.25477  -1.04810
O    -1.20299  -1.59651  -1.96125
C    -0.09666  -1.14609   0.00729
C     1.00712  -1.21625   0.95298
C     2.10701  -2.20061   0.64259
O     1.07735  -0.52605   1.98583
C     1.21461   1.03661  -0.77134
C     2.62864   0.93056  -0.39457
O     3.44362   0.32339  -1.06665
O     2.91214   1.53083   0.75914
C     4.25015   1.37539   1.25716
C     0.70194   0.59754  -2.05928
O     1.21332   0.05978  -3.01474
O    -0.63081   0.97053  -2.04766
C    -0.97044   1.36762  -0.76909
C    -2.19164   2.22267  -0.70259
N     0.21798   1.71515  -0.14237
C     0.30447   2.52828   1.07054
H    -2.75465   1.63379   3.35718
H    -1.48867   0.88330   4.37246
H    -2.95227  -0.04121   3.92744
H    -0.48748   0.09182   2.41421
H    -3.03096  -0.69910  -1.44488
H    -3.42191  -2.90465   0.09175
H    -1.01990  -4.21508   0.04176
H     0.55622  -2.65937  -1.55135
H     2.91826  -2.08539   1.37247
H     2.49457  -2.05117  -0.37568
H     1.71308  -3.22929   0.69760
H     4.47129   0.31042   1.41603
H     4.27859   1.91794   2.20847
H     4.97479   1.80237   0.54983
H    -1.99840   3.16944  -1.23080
H    -3.02166   1.70194  -1.19553
H    -2.48339   2.44021   0.33012
H     0.89595   3.42750   0.85076
H    -0.70544   2.82410   1.36538
H     0.77947   1.97054   1.87967
