53
Generated by autodE on: 2022-06-06. E = -1375.425083 Ha
C     0.06742   3.69855   0.85530
N    -0.42806   2.33698   0.87482
C    -0.61354   1.66244  -0.27784
O    -0.60165   2.22811  -1.37173
C    -0.83009   0.15158  -0.09003
C    -2.10339  -0.10120   0.78999
C    -3.33599   0.54621   0.10646
C    -3.72521  -0.48451  -0.98588
C    -2.52921  -1.45326  -0.95440
C    -2.35948  -1.59853   0.56470
C    -1.17624  -0.76045  -1.36267
C    -1.29680  -0.16575  -2.77616
F    -2.19678   0.81332  -2.93660
F    -0.13799   0.29108  -3.29481
F    -1.68813  -1.16773  -3.61004
C    -0.03738  -1.80299  -1.42619
N     0.63478  -1.78968  -0.14410
C     1.93230  -2.43784  -0.18341
C     0.52022  -0.49373   0.52627
C     0.35651  -0.68983   2.06353
C     0.56445  -2.03531   2.68839
O     0.10661   0.27739   2.77044
C     1.78050   0.38168   0.29076
C     2.65477   0.76040   1.32284
C     3.81899   1.48760   1.05576
C     4.14372   1.84978  -0.25243
C     3.29263   1.46589  -1.29183
C     2.13201   0.73810  -1.02305
H     0.08118   4.08977   1.88060
H    -0.57864   4.34150   0.24071
H     1.09085   3.74995   0.44284
H    -0.26567   1.78035   1.71797
H    -1.98587   0.22113   1.82563
H    -4.14003   0.68306   0.84337
H    -3.11078   1.53615  -0.31461
H    -3.93593  -0.03866  -1.96195
H    -4.62106  -1.04877  -0.68696
H    -2.68515  -2.37904  -1.52097
H    -3.28199  -1.94648   1.05164
H    -1.53052  -2.24872   0.86067
H    -0.43625  -2.80864  -1.63551
H     0.66575  -1.57175  -2.24773
H     2.44723  -2.35772   0.78134
H     1.79812  -3.50827  -0.40771
H     2.60153  -2.01316  -0.95843
H     1.65158  -2.18200   2.81144
H     0.19338  -2.85512   2.06463
H     0.10319  -2.04266   3.68444
H     2.44495   0.50268   2.35947
H     4.47391   1.76977   1.88354
H     5.05162   2.42039  -0.46106
H     3.52911   1.73312  -2.32450
H     1.49441   0.46431  -1.85717
