27
Generated by autodE on: 2022-06-06. E = -818.181891 Ha
C     3.69067   0.78543   1.69058
N     2.25554   0.60745   1.61651
C     1.64208  -0.12556   0.66088
O     2.25378  -0.73102  -0.22893
C     0.15787  -0.16403   0.75258
C    -0.71351  -0.33630  -0.26682
C    -0.42752  -0.46246  -1.73090
F    -1.54791  -0.24483  -2.45381
F     0.48602   0.42247  -2.17564
F     0.01449  -1.68971  -2.07112
C    -2.11702  -0.15234   0.28342
C    -2.24771   1.37845   0.58453
C    -1.25422   1.58403   1.76147
C    -0.67904   0.14632   1.98880
C    -1.92584  -0.71357   1.70569
H     4.08781   0.40372   2.64450
H     4.15807   0.23410   0.86667
H     3.96093   1.84969   1.60468
H     1.68119   1.08045   2.30629
H    -2.92445  -0.56741  -0.32966
H    -2.00580   1.98477  -0.29939
H    -3.28065   1.60945   0.88312
H    -1.77188   1.92231   2.67073
H    -0.45828   2.30742   1.53577
H    -0.17440   0.00150   2.95168
H    -1.71557  -1.79287   1.71732
H    -2.76797  -0.48722   2.37656
