53
Generated by autodE on: 2022-06-06. E = -1375.372107 Ha. Imaginary frequency = -240.5 cm-1
C     0.39621   3.43594   0.73803
N    -0.31111   2.17247   0.76142
C    -0.59478   1.51470  -0.39041
O    -0.38750   2.02143  -1.50450
C    -1.26728   0.20207  -0.21249
C    -2.40866   0.09795   0.80001
C    -3.62406   0.74144   0.05205
C    -3.94605  -0.31518  -1.04644
C    -2.86229  -1.41495  -0.80369
C    -2.80848  -1.38242   0.73176
C    -1.50352  -0.79096  -1.17543
C    -1.16629  -0.70344  -2.63438
F    -1.89984   0.22467  -3.29572
F     0.12489  -0.41416  -2.89253
F    -1.42337  -1.87614  -3.26331
C    -0.04077  -2.37176  -0.63524
N     1.10871  -1.71198  -0.39490
C     2.22144  -1.97086  -1.33497
C     1.20253  -0.73828   0.58701
C     0.56812  -0.92297   1.88929
C     0.31728  -2.31022   2.44626
O     0.35532   0.04189   2.64948
C     2.20094   0.34253   0.42708
C     2.95543   0.79762   1.53041
C     3.91297   1.79985   1.38474
C     4.14962   2.37785   0.13228
C     3.40957   1.94288  -0.96991
C     2.44522   0.94503  -0.82409
H     0.41884   3.85150   1.75419
H    -0.11878   4.15042   0.07947
H     1.43310   3.33307   0.37772
H    -0.18743   1.58202   1.59025
H    -2.20400   0.51767   1.79102
H    -4.46564   0.86991   0.74913
H    -3.37607   1.72878  -0.36297
H    -3.90900   0.09518  -2.06248
H    -4.94341  -0.75389  -0.89637
H    -3.07130  -2.37941  -1.28199
H    -3.79378  -1.56922   1.18296
H    -2.09425  -2.07077   1.19186
H    -0.71337  -2.55934   0.18713
H    -0.00085  -3.13365  -1.41526
H     3.16161  -1.63339  -0.89006
H     2.27483  -3.05395  -1.49945
H     2.06887  -1.47221  -2.29762
H     0.91562  -2.36991   3.36982
H     0.60610  -3.13652   1.78717
H    -0.73479  -2.42396   2.74570
H     2.79513   0.35736   2.51409
H     4.48559   2.12669   2.25606
H     4.90116   3.16262   0.01916
H     3.57056   2.39294  -1.95239
H     1.85694   0.65260  -1.68921
