48
Generated by autodE on: 2022-06-21. E = -1033.208576 Ha
C    -0.33213   1.22077   3.08450
N     0.25587   0.80367   1.82537
C     1.03017   1.63760   1.09544
C     1.75479   1.27353  -0.00392
C     2.45973   2.33574  -0.72884
N     3.11453   1.96713  -1.86178
O     2.47891   3.52868  -0.35664
C     1.78179  -0.16092  -0.47085
C     1.25526  -1.12200   0.60642
C     0.06018  -0.55742   1.38533
C    -1.19376  -0.84836   0.46097
C    -2.37521  -1.30488   1.33604
C    -1.59553   0.36824  -0.38414
C    -1.34996   0.41344  -1.76364
C    -1.67728   1.54257  -2.52037
C    -2.25888   2.65599  -1.90886
C    -2.52524   2.61877  -0.53664
C    -2.20466   1.48491   0.21382
N    -0.68604  -1.93214  -0.40776
C    -1.62345  -2.88725  -0.95359
C     0.62724  -2.40201   0.00756
C     1.43874  -3.04051  -1.12611
C     0.49581  -3.42619   1.09163
N     0.31582  -4.22819   1.91306
H    -0.22176   2.30708   3.19758
H     0.16178   0.72726   3.94026
H    -1.40330   0.97548   3.12672
H     1.05844   2.67497   1.43495
H     3.57668   2.68597  -2.40706
H     3.07387   1.02757  -2.23494
H     2.81084  -0.46105  -0.72637
H     1.19318  -0.26984  -1.39459
H     2.06721  -1.37567   1.30170
H    -0.07395  -1.16815   2.28898
H    -2.10813  -2.21690   1.89014
H    -3.26807  -1.51152   0.72915
H    -2.63996  -0.53205   2.06938
H    -0.88731  -0.44879  -2.24235
H    -1.47172   1.55098  -3.59383
H    -2.50827   3.54308  -2.49615
H    -2.98654   3.47848  -0.04417
H    -2.42937   1.48210   1.28018
H    -2.50007  -2.35634  -1.35162
H    -1.98265  -3.63668  -0.21947
H    -1.16501  -3.43080  -1.79270
H     1.47109  -2.36341  -1.98905
H     2.46453  -3.23951  -0.78364
H     0.99375  -3.99307  -1.44479
