28
Generated by autodE on: 2022-07-27. E = -575.422613 Ha
C     2.36229  -2.78404  -1.04281
C     1.63023  -1.89695  -0.07107
C     1.94654  -1.94104   1.28479
N     2.23255  -1.96219   2.42777
N     0.73838  -0.92256  -0.50848
C     0.97312  -0.40421  -1.86935
C    -0.31683  -0.51180   0.21207
C    -0.82937  -1.36403   1.32282
C    -0.93276   0.80142  -0.03828
C    -0.13851   1.94586  -0.26816
C    -0.72481   3.19375  -0.47860
C    -2.11647   3.33249  -0.45937
C    -2.91667   2.20969  -0.21951
C    -2.33409   0.96135  -0.00392
H     1.67610  -3.30099  -1.73592
H     3.10855  -2.24655  -1.65518
H     2.90335  -3.55849  -0.48075
H     0.13373   0.21866  -2.18570
H     1.04852  -1.25691  -2.55485
H     1.90967   0.16743  -1.90813
H    -0.69373  -2.43083   1.07681
H    -0.30244  -1.19810   2.28027
H    -1.89241  -1.15404   1.50027
H     0.94925   1.85779  -0.26243
H    -0.08917   4.06596  -0.64896
H    -2.57503   4.31023  -0.62393
H    -4.00486   2.30626  -0.20335
H    -2.97377   0.09448   0.17048
