20
Generated by autodE on: 2022-06-21. E = -457.715312 Ha
C     3.08503  -0.75365  -0.11815
N     1.82581  -0.06372   0.10824
C     1.81450   1.12783   0.84420
C     0.68285   1.78859   1.13580
C    -0.68302   1.31708   0.70103
C    -0.57416   0.00551  -0.05961
C    -1.76901  -0.68307  -0.57299
N    -2.95683  -0.07000  -0.33964
O    -1.72705  -1.76956  -1.18563
C     0.63287  -0.58118  -0.29783
H     3.81393  -0.08496  -0.60245
H     3.52189  -1.11377   0.82842
H     2.91358  -1.61602  -0.77440
H     2.79723   1.48027   1.16292
H     0.75513   2.71338   1.71278
H    -1.34618   1.20849   1.58336
H    -1.17531   2.09524   0.08161
H    -3.02860   0.82447   0.12815
H    -3.80367  -0.50459  -0.68952
H     0.68198  -1.52239  -0.84759
