53
Generated by autodE on: 2022-06-07. E = -3858.427122 Ha
C     2.90688   3.45482   1.63081
O     2.49665   2.42503   0.71801
C     1.18307   2.28170   0.51424
O     0.35351   2.98540   1.05161
C     0.87675   1.12832  -0.46588
C     1.67301   1.38957  -1.75528
C     1.25432  -0.19831   0.25372
C     1.84215  -1.31693  -0.65550
O     0.66996  -1.85000  -1.28991
C    -0.01484  -2.20254  -0.08626
C     1.06278  -3.00485   0.63319
Br    0.65002  -4.30357   1.90643
C     2.24707  -2.45721   0.28624
C     3.59899  -2.69572   0.82478
C     4.63072  -1.64515   0.50767
O     3.85872  -3.68968   1.49225
C    -0.09098  -0.84884   0.68411
C    -1.21230   0.13034   0.24187
C    -1.68277   0.95686   1.48416
C    -2.75499   1.99650   1.28057
O    -1.18216   0.79209   2.58407
C    -2.40658  -0.61928  -0.34076
C    -3.36900  -1.16550   0.52112
C    -4.42154  -1.93539   0.02020
C    -4.52560  -2.17080  -1.35422
C    -3.56569  -1.63600  -2.21861
C    -2.51188  -0.86818  -1.71528
N    -0.54493   0.99323  -0.73396
C    -1.23515   2.05457  -1.43857
H     2.48224   3.27289   2.62854
H     4.00114   3.40677   1.66909
H     2.58134   4.44052   1.26868
H     2.75059   1.31283  -1.56355
H     1.39112   0.65625  -2.52232
H     1.47112   2.39710  -2.14581
H     1.92989  -0.00596   1.09306
H     2.58848  -1.01258  -1.39236
H    -0.95928  -2.71566  -0.28383
H     4.26744  -0.64589   0.79873
H     4.80496  -1.61461  -0.58084
H     5.57113  -1.87213   1.02602
H    -0.16651  -1.01623   1.76189
H    -3.34305   2.08644   2.20463
H    -3.41212   1.77987   0.43100
H    -2.25942   2.96276   1.10011
H    -3.29424  -0.99943   1.59876
H    -5.16156  -2.35302   0.70700
H    -5.34937  -2.77024  -1.74880
H    -3.63405  -1.82017  -3.29355
H    -1.75450  -0.47116  -2.39040
H    -0.80332   2.18398  -2.44327
H    -2.28892   1.78436  -1.57578
H    -1.19942   3.03285  -0.92760
