35
Generated by autodE on: 2022-06-07. E = -824.513670 Ha
C     5.21422   0.10329   0.61839
O     3.94590  -0.36031   0.14114
C     2.88295   0.40971   0.42185
O     2.98241   1.45299   1.04716
C     1.63743  -0.15490  -0.15061
C     1.73398  -1.24053  -1.15513
N     0.44710   0.32073   0.23688
C     0.30380   1.10684   1.48310
C    -0.70177   0.12139  -0.52423
C    -0.63388   0.32487  -1.94938
C    -1.85079   0.01549  -2.80215
O     0.38489   0.76760  -2.52231
C    -1.94591  -0.20338   0.20320
C    -1.93143  -1.22013   1.18109
C    -3.08573  -1.55185   1.89122
C    -4.28645  -0.88084   1.63567
C    -4.31622   0.13238   0.67153
C    -3.15886   0.47324  -0.03065
H     5.45128   1.08820   0.19015
H     5.94958  -0.64007   0.28964
H     5.21128   0.17609   1.71589
H     0.79569  -1.81837  -1.16596
H     2.58604  -1.89183  -0.92896
H     1.85655  -0.83338  -2.17497
H     0.63126   2.13595   1.29685
H    -0.75064   1.11248   1.76662
H     0.90366   0.66871   2.28733
H    -1.48867  -0.33984  -3.77805
H    -2.43507   0.93221  -2.98337
H    -2.51864  -0.73509  -2.36138
H    -1.00036  -1.75663   1.37904
H    -3.04975  -2.34461   2.64255
H    -5.19211  -1.14238   2.18791
H    -5.24549   0.67237   0.47389
H    -3.18953   1.28815  -0.75531
