53
Generated by autodE on: 2022-06-07. E = -3858.320129 Ha. Imaginary frequency = -195.2 cm-1
C     2.58344   3.23495   2.11516
O     2.11919   2.77537   0.84370
C     0.88306   2.22269   0.81921
O     0.20514   2.18034   1.84500
C     0.52414   1.71385  -0.49205
C     1.44096   2.00968  -1.64609
C     1.43087  -0.35134   0.68175
C     1.97007  -1.17223  -0.49892
O     0.74105  -1.60034  -1.11538
C     0.17418  -2.16565   0.07574
C     1.31993  -3.12590   0.45865
Br    1.01318  -4.70033   1.40364
C     2.47016  -2.52077   0.09170
C     3.86923  -2.90218   0.33380
C     4.90347  -1.84091   0.05919
O     4.17392  -4.01924   0.73956
C     0.26125  -0.97019   1.03940
C    -1.53067   0.53496   0.14657
C    -1.89159   1.19937   1.46243
C    -2.41188   2.61243   1.34415
O    -2.05877   0.54964   2.48616
C    -2.58697  -0.39823  -0.32525
C    -3.84368  -0.47037   0.32186
C    -4.82628  -1.37000  -0.09052
C    -4.59625  -2.23336  -1.16473
C    -3.36115  -2.18423  -1.81722
C    -2.37621  -1.28865  -1.40523
N    -0.71559   1.17579  -0.75823
C    -1.09873   1.20331  -2.18948
H     2.64725   2.40381   2.83331
H     3.58146   3.65350   1.93767
H     1.91641   4.00999   2.52054
H     2.46615   2.10479  -1.27513
H     1.42697   1.20493  -2.39216
H     1.18914   2.95321  -2.16236
H     2.08008   0.25403   1.30814
H     2.63175  -0.67332  -1.21304
H    -0.80023  -2.62955  -0.09670
H     4.65888  -0.91482   0.60508
H     4.90236  -1.58788  -1.01409
H     5.89834  -2.19989   0.35257
H    -0.26511  -0.92093   1.98852
H    -2.35157   3.11519   2.31888
H    -3.47401   2.53805   1.05012
H    -1.89114   3.19852   0.57770
H    -4.07171   0.18190   1.16293
H    -5.78442  -1.38916   0.43417
H    -5.36711  -2.93705  -1.48674
H    -3.15305  -2.85741  -2.65227
H    -1.41928  -1.30012  -1.91887
H    -0.55869   0.45721  -2.78303
H    -2.17388   1.03580  -2.27665
H    -0.87418   2.20075  -2.58293
