54
Generated by autodE on: 2022-06-08. E = -1795.776344 Ha
C    -7.02018  -1.45846  -6.30492
N    -6.40380  -1.53224  -4.99669
C    -5.13212  -1.89879  -4.79946
O    -4.38504  -2.34880  -5.66882
C    -4.61185  -1.75154  -3.36435
C    -5.66486  -1.69881  -2.20266
O    -6.81118  -1.31415  -2.21584
O    -5.03244  -2.14497  -1.12013
C    -3.60197  -2.40710  -1.58871
C    -2.95822  -3.41391  -0.67909
C    -1.76352  -4.02009  -1.09431
C    -1.16772  -5.01086  -0.31249
C    -1.76693  -5.41326   0.88508
C    -2.96657  -4.82266   1.29156
C    -3.56277  -3.82841   0.51257
C    -3.06618  -0.94346  -1.82724
C    -3.67996  -0.55817  -2.97289
C    -3.66758   0.66760  -3.90249
C    -3.08225   0.26867  -5.20864
N    -2.52746   0.06917  -6.21259
C    -5.05520   1.13184  -4.12210
N    -6.11912   1.57005  -4.25523
C    -2.86284   1.94668  -3.50900
C    -1.38965   1.66972  -3.19176
C    -1.09396   1.91175  -1.71711
C    -2.09182   1.26285  -0.76009
C    -2.18725  -0.27217  -0.78021
C    -0.79822  -0.89664  -0.68407
Cl   -3.07863  -0.62229   0.84360
N    -3.78973  -2.88384  -2.93358
C    -4.41280  -4.20336  -3.07521
H    -6.36526  -1.93729  -7.04189
H    -7.17957  -0.40696  -6.59457
H    -7.99344  -1.97088  -6.30024
H    -6.91945  -1.17346  -4.19344
H    -1.29647  -3.71345  -2.03090
H    -0.23448  -5.47182  -0.64321
H    -1.30214  -6.18964   1.49717
H    -3.44511  -5.13642   2.22197
H    -4.49598  -3.37012   0.83472
H    -2.96620   2.63135  -4.36108
H    -3.38458   2.42004  -2.66894
H    -1.12286   0.63689  -3.46768
H    -0.75166   2.31778  -3.80968
H    -1.12806   2.99586  -1.51794
H    -0.06999   1.58733  -1.47953
H    -3.10037   1.68100  -0.88192
H    -1.77855   1.52254   0.25968
H    -0.83269  -1.94842  -0.39019
H    -0.20020  -0.34606   0.05537
H    -0.30126  -0.82594  -1.66345
H    -3.72615  -4.96678  -2.69231
H    -5.37596  -4.30021  -2.54380
H    -4.57284  -4.39678  -4.14224
