29
Generated by autodE on: 2022-06-08. E = -800.083012 Ha
C    -5.22858  -0.17667  -0.22825
N    -3.84425  -0.45873   0.08347
C    -2.83236   0.20645  -0.52525
O    -3.04324   1.05315  -1.41378
C    -1.50015  -0.15041  -0.04939
C    -1.18205  -1.00233   1.02204
O    -1.81924  -1.70829   1.79715
O     0.23857  -0.92947   1.13192
C     0.71089  -0.10305   0.19370
C     2.14473   0.12576   0.10000
C     3.01297  -0.91879   0.47763
C     4.39239  -0.73428   0.42263
C     4.92233   0.49026   0.00075
C     4.06539   1.53586  -0.35644
C     2.68253   1.36309  -0.30546
N    -0.28781   0.36891  -0.53694
C    -0.15581   1.19011  -1.74137
H    -5.44018  -0.33503  -1.29782
H    -5.86734  -0.84999   0.35684
H    -5.50183   0.86414   0.01475
H    -3.61245  -1.10566   0.83390
H     2.59763  -1.87381   0.80215
H     5.05822  -1.55143   0.70800
H     6.00449   0.63223  -0.04169
H     4.47514   2.49929  -0.66672
H     2.02768   2.19949  -0.54735
H    -0.35699   2.24362  -1.50886
H    -0.88643   0.84105  -2.47554
H     0.85776   1.07891  -2.13868
