23
Generated by autodE on: 2022-05-29. E = -649.341735 Ha
C     2.33859  -2.13360  -1.04668
C     1.59061  -0.81480  -0.99846
F     2.51660   0.21208  -1.29140
C     0.98512  -0.49542   0.29767
C     0.19947  -0.09179   1.12717
C    -1.08281   0.51572   1.49680
F    -0.96876   1.35171   2.57551
F    -1.95668  -0.47292   1.88714
C    -1.65517   1.27550   0.30616
C    -1.69398   0.49196  -1.02024
C    -0.44112   0.53835  -1.94069
C     0.44864  -0.71786  -2.03008
H     3.18395  -2.11356  -0.34382
H     2.71919  -2.30217  -2.06476
H     1.66991  -2.96257  -0.77479
H    -1.06079   2.19558   0.19554
H    -2.67329   1.57260   0.60477
H    -1.97644  -0.55436  -0.81456
H    -2.53446   0.91292  -1.59141
H    -0.80010   0.72963  -2.96306
H     0.18743   1.40755  -1.68438
H    -0.16485  -1.62832  -1.94189
H     0.94112  -0.75610  -3.01514
