38
Generated by autodE on: 2022-05-29. E = -1049.480655 Ha. Imaginary frequency = -186.3 cm-1
C    -2.02758   1.93836   1.71527
C    -1.68914   0.46798   1.52718
F    -2.87500  -0.19181   1.10228
C    -1.25310  -0.19350   2.84904
C    -0.60640  -1.58403   2.70637
C     0.91632  -1.65397   2.93661
C     1.84696  -0.67409   2.20438
C     1.75513  -0.68281   0.68530
F     1.88359  -1.97891   0.22338
F     2.83570  -0.00832   0.15708
C     0.49278  -0.10368   0.21086
C    -0.65966   0.24814   0.49168
C    -1.42707   0.73224  -1.79380
C    -2.88412   0.99017  -1.81135
N    -0.81904  -0.37261  -2.23471
C     0.54186  -0.19058  -2.25277
C     1.52569  -1.19718  -2.72956
C     0.74583   1.21741  -2.12917
O     1.72365   1.94985  -2.18924
O    -0.54008   1.75068  -1.87893
H    -2.80241   2.04078   2.49017
H    -2.39512   2.38092   0.78040
H    -1.13374   2.49237   2.03511
H    -0.56300   0.50055   3.35379
H    -2.15692  -0.24308   3.47644
H    -1.06229  -2.26617   3.44078
H    -0.85888  -2.00652   1.72142
H     1.11018  -1.50481   4.01189
H     1.24650  -2.68022   2.70866
H     2.89042  -0.92043   2.45917
H     1.66978   0.36214   2.52876
H    -3.42580   0.08482  -1.51070
H    -3.20392   1.28318  -2.82659
H    -3.13938   1.80362  -1.12223
H    -1.27375  -1.28393  -2.24491
H     1.29966  -2.19620  -2.33240
H     1.54256  -1.25634  -3.83208
H     2.52980  -0.91165  -2.38911
