12
Generated by autodE on: 2022-06-17. E = -157.300303 Ha
C    -1.96288  -0.07111  -0.00315
C    -0.50977  -0.41191  -0.13816
C     0.50977   0.41176   0.13857
C     1.96288   0.07122   0.00286
H    -2.10869   0.95919   0.35784
H    -2.47102  -0.75622   0.69866
H    -2.48971  -0.17487  -0.96845
H    -0.28076  -1.42619  -0.49427
H     0.28076   1.42596   0.49491
H     2.49139   0.18035   0.96659
H     2.10876  -0.96074  -0.35333
H     2.46924   0.75306  -0.70347
