24
Generated by autodE on: 2022-06-17. E = -721.582333 Ha
C     2.33004  -2.50356   0.55299
O     1.03052  -1.91355   0.43140
C     0.99606  -0.61785   0.08695
O     2.01575   0.04874  -0.05433
C    -0.33999  -0.08553  -0.12575
N    -0.52650   1.26566  -0.25915
C     0.12335   2.35987   0.07764
C    -0.40013   3.69617  -0.35046
C     1.26397   2.35566   0.92703
N     2.13359   2.51854   1.68513
C    -1.55206  -0.81073  -0.49853
O    -2.57930  -0.22153  -0.83670
O    -1.46642  -2.14192  -0.46207
C    -2.64122  -2.87009  -0.84199
H     2.15902  -3.55286   0.82097
H     2.87796  -2.44155  -0.39882
H     2.91323  -2.00236   1.33939
H    -1.43961   1.44125  -0.70848
H    -1.35490   3.58351  -0.88361
H    -0.54237   4.35346   0.52154
H     0.32242   4.18761  -1.02272
H    -3.48393  -2.62094  -0.18079
H    -2.91705  -2.64718  -1.88298
H    -2.38144  -3.93017  -0.73919
