36
Generated by autodE on: 2022-06-17. E = -878.868495 Ha. Imaginary frequency = -393.3 cm-1
C     3.08954   1.14127   2.76852
O     2.32770   0.42653   1.78537
C     1.48914   1.14908   1.04251
O     1.36165   2.36179   1.16664
C     0.67446   0.36908   0.09710
C     1.07918  -0.97253  -0.34559
O     1.63705  -1.81616   0.33618
O     0.73804  -1.18307  -1.62323
C     0.88678  -2.50882  -2.13853
N    -0.17004   1.17515  -0.63036
C    -1.39345   0.85567  -1.14072
C    -2.38048   1.99628  -1.23956
C    -1.56518  -0.11288  -2.18069
N    -1.87507  -0.80982  -3.06163
C    -2.12253  -0.51134   0.56781
C    -2.47446  -1.84884  -0.02668
C    -1.08345  -0.39523   1.48789
C    -1.06720   0.71812   2.49457
H     2.42118   1.63535   3.48838
H     3.73131   1.89398   2.28848
H     3.70302   0.38819   3.27631
H     0.39972  -3.23757  -1.47489
H     1.95180  -2.76227  -2.24260
H     0.39855  -2.50559  -3.11976
H    -0.14447   2.12076  -0.23756
H    -2.15277   2.64725  -2.10052
H    -3.39581   1.60021  -1.37596
H    -2.35600   2.59731  -0.31906
H    -2.94470   0.20465   0.66734
H    -1.57461  -2.42639  -0.28924
H    -3.04886  -2.44379   0.70530
H    -3.09735  -1.76045  -0.92727
H    -0.49029  -1.28505   1.71480
H    -1.91425   0.60753   3.19472
H    -0.14526   0.72555   3.09204
H    -1.18103   1.70334   2.01299
