51
Generated by autodE on: 2022-06-09. E = -6239.818719 Ha
C    -1.59750  -4.80419  -9.76535
N    -2.24167  -4.68894  -8.47254
C    -2.46950  -3.49934  -7.90085
O    -2.18745  -2.42256  -8.43967
C    -3.06122  -3.56643  -6.51481
N    -2.72123  -4.54812  -5.76108
C    -3.31532  -4.32473  -4.44860
C    -4.21642  -5.53254  -4.14600
C    -2.05981  -4.16412  -3.53923
O    -1.39385  -3.13067  -3.58708
N    -1.70140  -5.23484  -2.81443
C    -0.56614  -5.18376  -1.91375
C    -4.09314  -3.00233  -4.56914
C    -3.97184  -2.57698  -5.86396
C    -4.55303  -1.41878  -6.66905
C    -3.56951  -0.23162  -6.66125
C    -4.87593  -1.92648  -8.09039
C    -4.85150  -0.95255  -9.23497
O    -5.23244  -3.08524  -8.25770
C    -5.95135  -0.90660  -6.20656
C    -7.00691  -1.96693  -5.85362
C    -7.34382  -2.01313  -4.36425
C    -6.40499  -2.78627  -3.43642
C    -4.90289  -2.45930  -3.40741
Br   -4.58494  -0.50495  -3.10480
Br   -4.26726  -3.23862  -1.64449
H    -0.52804  -4.54032  -9.71324
H    -1.69019  -5.83782 -10.11972
H    -2.07793  -4.13228 -10.49144
H    -2.42224  -5.52094  -7.91979
H    -4.64126  -5.49291  -3.13647
H    -3.64113  -6.46201  -4.25865
H    -5.03838  -5.55832  -4.87502
H    -2.33330  -6.02381  -2.74978
H    -0.38034  -6.18883  -1.51564
H     0.33298  -4.83769  -2.44398
H    -0.75063  -4.49556  -1.07124
H    -2.61261  -0.51103  -7.11644
H    -3.38981   0.08572  -5.62621
H    -3.98851   0.62496  -7.20805
H    -3.80349  -0.72539  -9.48061
H    -5.33664  -1.40800 -10.10799
H    -5.34396  -0.00350  -8.98096
H    -6.32850  -0.26234  -7.01415
H    -5.80023  -0.22869  -5.35980
H    -6.69794  -2.96349  -6.20605
H    -7.93337  -1.73257  -6.39941
H    -7.45928  -0.98402  -3.98594
H    -8.32630  -2.49435  -4.23158
H    -6.78811  -2.66805  -2.41423
H    -6.46150  -3.86051  -3.67519
