23
Generated by autodE on: 2022-07-27. E = -588.326306 Ha
C     0.61999   1.39352  -2.71619
N     0.39638   0.01862  -3.13161
C    -0.38624  -0.86708  -2.49029
O    -0.63420  -2.00975  -2.89061
C    -1.04622  -0.38702  -1.25699
N    -0.72980  -0.54263  -0.09648
C    -0.44515  -0.57903   1.15565
C    -0.82302  -1.76209   2.00089
C     0.26379   0.61938   1.68492
O     0.55898   1.58293   0.95959
N     0.56740   0.58985   2.99848
C     1.25386   1.69364   3.63945
H     0.73500   1.45854  -1.62599
H     1.54792   1.75708  -3.17602
H    -0.20494   2.05867  -3.02229
H     0.73453  -0.28075  -4.04345
H    -1.33834  -2.51751   1.39355
H    -1.49274  -1.46003   2.82360
H     0.06967  -2.22811   2.45018
H     0.28911  -0.20496   3.56245
H     0.65080   2.61581   3.61051
H     1.44611   1.43115   4.68671
H     2.21427   1.90400   3.14328
