21
Generated by autodE on: 2022-05-29. E = -590.918876 Ha
C     3.72895   0.35637   0.40801
C     2.60848   1.34745   0.31328
O     2.72273   2.56199   0.35889
C     1.29282   0.75685   0.17467
N     0.22288   0.30309   0.04469
C    -0.90235  -0.38327  -0.10386
C    -0.69697  -1.84366  -0.18047
C    -1.89378  -2.73891  -0.34130
O     0.44366  -2.30310  -0.11256
C    -2.16300   0.36220  -0.17402
C    -2.07124   1.86658  -0.07130
O    -3.24591  -0.20542  -0.30936
H     3.43366  -0.63404   0.03390
H     4.59717   0.74279  -0.14556
H     4.01017   0.26119   1.47098
H    -1.54946  -3.78097  -0.37539
H    -2.59830  -2.59723   0.49157
H    -2.44238  -2.48911  -1.26155
H    -3.07856   2.29478  -0.14732
H    -1.43447   2.27342  -0.87323
H    -1.61604   2.16215   0.88778
