17
Generated by autodE on: 2022-05-29. E = -372.136029 Ha
F    -0.12598  -0.59448   2.24185
C    -0.31762  -0.30630   0.94553
C    -1.13643   0.61647   0.42811
C    -0.80525   0.64221  -1.06134
C     0.60740   1.30061  -1.19653
C     1.54686   0.24097  -0.54808
C     0.55639  -0.89816  -0.13358
C    -0.44384  -0.84113  -1.30812
H    -1.78262   1.31351   0.96196
H    -1.57438   1.08163  -1.70960
H     0.85630   1.45785  -2.25715
H     0.65028   2.27678  -0.69262
H     2.10412   0.62747   0.31728
H     2.27733  -0.14608  -1.27398
H     1.02391  -1.86068   0.10893
H    -1.29919  -1.51998  -1.17728
H     0.02942  -1.01796  -2.28656
