21
Generated by autodE on: 2022-06-19. E = -590.877236 Ha
C    -1.12365  -1.64767  -1.17225
C    -1.38815  -0.50986  -0.20563
O    -2.49918  -0.39723   0.31209
C    -0.38004   0.53984  -0.05281
O     0.93596   0.32381  -0.27552
C     1.67295  -0.71944  -0.09051
C     3.07094  -0.67513  -0.57342
C     1.17522  -1.84396   0.62133
N     0.84202  -2.75175   1.27199
C    -0.69571   1.95934   0.09428
C     0.45442   2.93510  -0.01425
O    -1.84548   2.34758   0.30460
H    -0.17984  -1.57321  -1.72972
H    -1.14854  -2.61061  -0.63961
H    -1.95933  -1.64129  -1.88912
H     3.35170   0.36513  -0.78689
H     3.75069  -1.11898   0.16949
H     3.16226  -1.26556  -1.50308
H     1.00967   2.79316  -0.95427
H     1.16807   2.78098   0.81079
H     0.05371   3.95562   0.03298
