20
Generated by autodE on: 2022-06-19. E = -457.715323 Ha
C    -3.03357  -0.54807  -0.76786
N    -1.81521   0.03728  -0.23271
C    -1.84739   1.33332   0.29764
C    -0.74624   1.96530   0.73352
C     0.62933   1.34626   0.69642
C     0.57033  -0.04158   0.07932
C     1.78395  -0.85595  -0.09271
N     2.94442  -0.29545   0.33207
O     1.78002  -1.99819  -0.59579
C    -0.60835  -0.58667  -0.33465
H    -3.83814  -0.52251  -0.01658
H    -2.84407  -1.59387  -1.04037
H    -3.38041  -0.00803  -1.66512
H    -2.83777   1.79091   0.33208
H    -0.85245   2.97405   1.13912
H     1.32527   2.00091   0.13300
H     1.05646   1.30720   1.71981
H     2.99094   0.63043   0.73777
H     3.80491  -0.82081   0.22307
H    -0.62125  -1.58474  -0.77529
