35
Generated by autodE on: 2022-07-27. E = -767.250014 Ha
C     2.77400   1.96614  -1.97363
C     2.02844   1.21613  -0.90531
C     2.23361   1.55010   0.43555
N     2.46045   1.84176   1.55178
N     1.11319   0.23305  -1.21565
C     1.27739  -0.39651  -2.54028
C     0.08314  -0.12603  -0.41559
C    -0.44177  -1.49790  -0.45868
C     0.41616  -2.61051  -0.59830
C    -0.09378  -3.90879  -0.61829
C    -1.46891  -4.13003  -0.48978
C    -2.33116  -3.03732  -0.33700
C    -1.82595  -1.73867  -0.31796
C    -0.50205   0.83427   0.53836
C    -0.76715   2.16826   0.15825
C    -1.40096   3.04531   1.03287
C    -1.77888   2.62163   2.31532
C    -1.51462   1.30788   2.70777
C    -0.88334   0.42324   1.82932
H     3.43935   1.31990  -2.57068
H     2.09036   2.47721  -2.67555
H     3.40040   2.73584  -1.50267
H     1.24516   0.39241  -3.30287
H     2.24054  -0.91873  -2.60542
H     0.45496  -1.09020  -2.72551
H     1.49413  -2.45613  -0.67169
H     0.59002  -4.75473  -0.72196
H    -1.86646  -5.14743  -0.50238
H    -3.40707  -3.19932  -0.23665
H    -2.50753  -0.89382  -0.20539
H    -0.47781   2.51368  -0.83652
H    -1.60927   4.06899   0.71228
H    -2.27305   3.31442   3.00023
H    -1.79784   0.96584   3.70619
H    -0.67882  -0.60076   2.14682
