35
Generated by autodE on: 2022-06-03. E = -767.252795 Ha
C    -1.93556   1.40827   1.61067
C    -1.08521   2.09255   0.59027
C    -1.36678   3.42586   0.26323
N    -1.64385   4.54761   0.04662
N    -0.00765   1.47497  -0.00281
C     0.99749   2.37030  -0.61481
C     0.17070   0.13413  -0.04839
C     1.54156  -0.40705  -0.08166
C     1.87372  -1.47811  -0.93743
C     3.16657  -1.99921  -0.96011
C     4.15776  -1.46749  -0.12642
C     3.84118  -0.41108   0.73377
C     2.54759   0.11122   0.76018
C    -0.96581  -0.79409  -0.10079
C    -2.14452  -0.47588  -0.81064
C    -3.17371  -1.40697  -0.94447
C    -3.06688  -2.67246  -0.35691
C    -1.91189  -2.99779   0.36343
C    -0.87481  -2.07463   0.48747
H    -1.32552   0.70560   2.20194
H    -2.37153   2.15861   2.28662
H    -2.76757   0.81997   1.18076
H     0.47513   3.05006  -1.30096
H     1.50802   2.96228   0.15521
H     1.71929   1.78474  -1.18796
H     1.11020  -1.89244  -1.59814
H     3.40522  -2.82247  -1.63770
H     5.17009  -1.87768  -0.14478
H     4.60403   0.00247   1.39780
H     2.30688   0.92025   1.45234
H    -2.24555   0.50561  -1.27779
H    -4.06852  -1.14052  -1.51218
H    -3.87865  -3.39670  -0.45562
H    -1.81896  -3.97876   0.83572
H     0.01941  -2.34123   1.05299
