49
Generated by autodE on: 2022-06-03. E = -1167.044495 Ha. Imaginary frequency = -250.5 cm-1
C     0.31470  -0.05508  -2.85853
N     0.18058   0.69357  -1.59639
C     1.18459   1.60966  -1.35356
C     2.28614   1.82194  -2.36163
C     1.00245   2.71583  -0.48140
N     1.02101   3.66213   0.20510
C     2.13556   0.50007   0.52737
C     3.03141  -0.59510  -0.08310
C     3.66078  -1.34230   1.10636
C     2.63734  -2.02159   1.65895
C     2.61149  -2.81627   2.82365
N     2.55482  -3.48356   3.77876
C     1.39362  -1.65868   0.78546
O     2.04212  -1.55718  -0.49122
C     1.06861  -0.18788   1.06163
C    -0.77180   0.35118  -0.66763
C    -1.56155  -0.89667  -0.80911
C    -0.99111  -2.12978  -1.20369
C    -1.75790  -3.29138  -1.28349
C    -3.12134  -3.26876  -0.97352
C    -3.70763  -2.06034  -0.58706
C    -2.94314  -0.89635  -0.50667
C    -1.44755   1.46196   0.06821
C    -1.87774   2.59274  -0.65119
C    -2.59806   3.61128  -0.02639
C    -2.91710   3.51536   1.33113
C    -2.52588   2.38035   2.04995
C    -1.80738   1.36209   1.42292
H     0.50849   0.65831  -3.66752
H     1.13365  -0.78299  -2.81543
H    -0.62406  -0.56743  -3.07755
H     2.74300   0.87448  -2.67776
H     1.93599   2.35234  -3.26498
H     3.07130   2.43623  -1.90012
H     2.54246   1.44397   0.88226
H     3.70191  -0.31934  -0.90299
H     4.69262  -1.26302   1.44550
H     0.58099  -2.39015   0.78807
H     0.43813   0.13720   1.88311
H     0.06773  -2.18720  -1.43875
H    -1.27948  -4.22630  -1.58531
H    -3.71889  -4.18123  -1.03379
H    -4.77372  -2.01783  -0.35108
H    -3.43183   0.03246  -0.21548
H    -1.63703   2.67690  -1.71283
H    -2.91411   4.48267  -0.60494
H    -3.47639   4.31389   1.82417
H    -2.78505   2.28526   3.10714
H    -1.53600   0.47119   1.98964
