25
Generated by autodE on: 2022-05-31. E = -464.869261 Ha
C    -1.15941   2.54333  -1.72793
C    -0.18191   1.41917  -1.91941
O     0.14798   1.02226  -3.02393
C     0.42122   0.79975  -0.65777
C    -0.47659   0.71302   0.49383
C    -0.95103   0.22015   1.49712
C    -1.16263  -0.76198   2.55554
C     0.08281  -1.68383   2.56926
C     0.54838  -2.20735   1.19195
C     1.53830  -1.33982   0.35780
C     1.01275  -0.61084  -0.89729
H    -0.78663   3.25980  -0.97939
H    -2.10055   2.12892  -1.32923
H    -1.35673   3.04673  -2.68343
H     1.24774   1.49330  -0.40041
H    -1.31249  -0.30160   3.54537
H    -2.06971  -1.35283   2.34005
H     0.91702  -1.14378   3.04838
H    -0.14853  -2.54162   3.22192
H    -0.33381  -2.45952   0.57731
H     1.05231  -3.16782   1.38423
H     2.33214  -2.01562   0.00247
H     2.04708  -0.61587   1.01791
H     0.24215  -1.22970  -1.38657
H     1.83083  -0.50262  -1.62514
