43
Generated by autodE on: 2022-06-09. E = -3963.024214 Ha
C    -4.03731  -0.82079  -3.47975
O    -2.99049  -0.36775  -2.60446
C    -2.28984  -1.30288  -1.97502
O    -2.47417  -2.49318  -2.10740
C    -1.25740  -0.68800  -0.99815
C    -2.08914  -0.24627   0.20296
C    -2.60646  -1.22036   1.06918
C    -3.38418  -0.84497   2.16578
C    -3.66189   0.50532   2.39963
C    -3.16631   1.47524   1.52402
C    -2.38788   1.10220   0.42583
N    -0.61044   0.44393  -1.68852
C     0.58219   0.11885  -2.01586
C     1.47772   1.03633  -2.80048
C     0.94201   2.36676  -3.22696
O     2.60987   0.65213  -3.05174
C     1.05133  -1.23898  -1.57362
C     2.22213  -1.29222  -0.53007
O     1.80752  -2.40916   0.27038
C     0.54729  -1.86062   0.68853
C     1.00416  -0.49918   1.21870
Br    0.23320   0.38630   2.67005
C     2.05411  -0.14113   0.46118
C     2.84099   1.12466   0.46852
F     3.08883   1.56642   1.71025
F     4.02285   0.96947  -0.15203
F     2.19428   2.12785  -0.17548
C    -0.13944  -1.72544  -0.71517
H    -4.48663   0.08448  -3.90309
H    -3.62156  -1.45124  -4.27835
H    -4.78676  -1.39070  -2.91212
H    -2.40132  -2.27722   0.88689
H    -3.77324  -1.61096   2.84051
H    -4.26639   0.79988   3.26071
H    -3.38190   2.53210   1.69815
H    -1.99550   1.85846  -0.25265
H     0.03795   2.23094  -3.84044
H     1.70772   2.91212  -3.79273
H     0.64305   2.94651  -2.33996
H     1.29298  -1.88554  -2.42780
H     3.22308  -1.43382  -0.94564
H     0.03854  -2.51256   1.40368
H    -0.47301  -2.72905  -0.99244
