16
Generated by autodE on: 2022-06-09. E = -3218.295017 Ha
F     1.20426  -2.21350   1.07805
C     1.42137  -1.26463   0.13930
F     2.19429  -0.32133   0.69411
F     2.14407  -1.85460  -0.83584
C     0.13657  -0.73881  -0.37838
C    -0.46025   0.45450  -0.27990
Br    0.07161   2.05108   0.52607
C    -1.87783   0.25638  -0.88491
C    -2.65060  -0.63793   0.11076
C    -2.06400  -1.83415   0.01587
C    -0.94402  -1.64537  -1.03123
O    -1.56050  -0.69106  -1.91187
H    -2.37324   1.15289  -1.27090
H    -3.45227  -0.29675   0.76414
H    -2.25175  -2.75309   0.56942
H    -0.57587  -2.53078  -1.55949
