33
Generated by autodE on: 2022-06-17. E = -744.405037 Ha
C    -4.25987  -2.03252   1.32322
O    -3.19480  -1.07842   1.19672
C    -2.81603  -0.78785  -0.04739
O    -3.29206  -1.26671  -1.06113
N    -1.79518   0.13440  -0.09034
C    -1.23597   0.68529  -1.32215
C    -0.14969   1.62547  -0.73501
C    -0.30803   3.06968  -1.20880
C     1.24607   1.12105  -1.01575
C     1.99586   0.37598  -0.18177
C     3.32515  -0.10734  -0.51651
C     4.13342  -0.86421   0.26401
C     3.77743  -1.33922   1.64453
C     5.48938  -1.29413  -0.22134
N    -0.41175   1.57764   0.73906
N    -1.29214   0.75243   1.02617
H    -5.16908  -1.66383   0.82711
H    -3.96711  -2.99823   0.88677
H    -4.43459  -2.14193   2.39973
H    -0.82195  -0.11067  -1.95296
H    -2.00940   1.22758  -1.88552
H     0.42866   3.71960  -0.71406
H    -1.31948   3.44179  -0.98770
H    -0.14606   3.12162  -2.29618
H     1.63396   1.38579  -2.00620
H     1.59158   0.11807   0.80101
H     3.69681   0.17757  -1.50805
H     2.78477  -1.01299   1.98057
H     4.52338  -0.98087   2.37561
H     3.81051  -2.44211   1.68895
H     5.57197  -2.39578  -0.22559
H     5.70480  -0.92495  -1.23484
H     6.28095  -0.93121   0.45853
