10
Generated by autodE on: 2022-06-17. E = -392.847645 Ha
C    -2.73583   0.09897  -0.00268
O    -1.49736  -0.52193  -0.38519
C    -0.39112   0.07111   0.03881
O    -0.33088   1.07618   0.71196
N     0.71309  -0.67058  -0.42944
N     1.82668  -0.23212  -0.11025
N     2.88795   0.07173   0.11725
H    -2.78925   1.12170  -0.40214
H    -3.52683  -0.52203  -0.43767
H    -2.82816   0.12322   1.09251
