33
Generated by autodE on: 2022-06-17. E = -744.338108 Ha. Imaginary frequency = -355.2 cm-1
C    -0.84211   5.44266  -0.28245
O    -1.06355   4.02725  -0.35577
C    -0.31709   3.35847  -1.23883
O     0.51273   3.85387  -1.97425
N    -0.66634   2.01673  -1.16075
C    -1.56272   0.85162   0.37814
C    -1.17677  -0.46393   0.09833
C    -2.14063  -1.39300  -0.60298
C    -0.05376  -1.02709   0.84709
C     0.26303  -2.34326   0.92691
C     1.38586  -2.84569   1.69239
C     1.77035  -4.13971   1.83080
C     1.07022  -5.30626   1.19307
C     2.96817  -4.50182   2.66306
N     0.04311  -0.02682  -1.78920
N    -0.02960   1.13378  -1.82521
H     0.19749   5.65570   0.00562
H    -1.53066   5.81368   0.48529
H    -1.06086   5.91747  -1.24981
H    -2.56206   1.19592   0.10961
H    -1.04881   1.41590   1.15830
H    -1.62060  -2.11005  -1.25436
H    -2.85543  -0.82621  -1.21656
H    -2.71368  -1.97945   0.13594
H     0.56907  -0.30373   1.38674
H    -0.35644  -3.06789   0.39159
H     1.98181  -2.08445   2.21060
H     0.19794  -5.02299   0.59004
H     0.73543  -6.02046   1.96621
H     1.76905  -5.86420   0.54479
H     2.68543  -5.19297   3.47757
H     3.71992  -5.03815   2.05619
H     3.44791  -3.61784   3.10845
