28
Generated by autodE on: 2022-06-10. E = -741.678071 Ha
C    -2.29924   0.82623  -2.62543
C    -1.09450  -0.04838  -2.75670
O    -0.95321  -0.90370  -3.59762
C     0.06195   0.19059  -1.71013
C     0.85003   1.32693  -2.21258
N     1.48100   2.20580  -2.63127
C    -0.41851   0.48563  -0.36107
C    -0.48543   0.46147   0.84533
C    -0.11544   0.02446   2.19734
C    -1.03632  -1.04213   2.64808
N    -1.73110  -1.90615   2.98381
C    -0.14718   1.12311   3.18302
N    -0.13657   1.98868   3.95269
C     1.35646  -0.54524   2.09144
C     1.57896  -1.56579   0.96202
C     2.00485  -1.04744  -0.44023
C     0.96827  -1.07843  -1.57847
H    -2.85963   0.51784  -1.72675
H    -2.93932   0.72483  -3.51070
H    -2.00078   1.87538  -2.47339
H     2.01297   0.32764   1.96337
H     1.58317  -0.99578   3.06852
H     2.39065  -2.21331   1.32525
H     0.70035  -2.22674   0.87348
H     2.82885  -1.69271  -0.77868
H     2.44295  -0.03858  -0.35418
H     0.28863  -1.93400  -1.45253
H     1.47214  -1.20610  -2.54631
