32
Generated by autodE on: 2022-07-27. E = -909.810159 Ha
C    -0.07625  -0.18532   5.03122
N     0.19513   0.20476   3.66068
C    -0.22060  -0.54882   2.62780
O    -0.83389  -1.60866   2.77122
C     0.08806   0.02028   1.26996
C     0.10996   1.43090   1.13389
N     0.15973   2.59461   1.08213
N     0.30062  -0.73935   0.18704
C     0.63300  -2.17036   0.38081
C     0.18001  -0.24253  -1.09183
C     1.22880  -0.63030  -2.07370
O     2.26728  -1.20962  -1.70951
N     1.01804  -0.30553  -3.36560
C     2.04765  -0.51882  -4.35993
C    -0.93327   0.64295  -1.44121
O    -1.05267   1.20592  -2.52684
O    -1.88660   0.72915  -0.50266
C    -2.98486   1.60912  -0.76738
H    -1.15373  -0.35010   5.18224
H     0.26150   0.61575   5.69889
H     0.45124  -1.11638   5.29403
H     0.74124   1.04374   3.48852
H     0.87435  -2.61003  -0.58552
H    -0.25217  -2.65206   0.80822
H     1.47798  -2.26594   1.07290
H     0.21703   0.28874  -3.57157
H     2.96295   0.05494  -4.13475
H     1.66589  -0.20174  -5.33827
H     2.32802  -1.58186  -4.41811
H    -2.62314   2.63597  -0.92076
H    -3.54326   1.27925  -1.65505
H    -3.62454   1.56328   0.12150
