60
Generated by autodE on: 2022-06-10. E = -1651.485259 Ha. Imaginary frequency = -179.4 cm-1
C    -2.94589   4.77372   5.79495
N    -2.85951   5.67307   4.66096
C    -2.93469   5.21892   3.39670
O    -3.00692   4.01696   3.12340
C    -2.96319   6.25747   2.30034
C    -3.06041   7.60622   2.73818
N    -3.10738   8.63067   3.29451
C    -5.18491   5.78604   1.39713
C    -5.03327   5.59593   0.18148
C    -5.76388   5.35693  -1.10003
C    -6.53334   6.58118  -1.41547
N    -7.16607   7.52850  -1.62710
C    -4.92612   5.06058  -2.28379
N    -4.37803   4.75010  -3.25519
C    -6.74343   4.12399  -0.96560
C    -8.01234   4.30414  -0.13467
C    -7.90995   4.38384   1.39448
C    -7.59684   5.76581   1.99272
C    -6.13117   5.95167   2.53081
C    -5.94769   4.95589   3.59330
N    -5.93398   4.15574   4.43180
C    -6.09685   7.42463   3.07748
C    -6.06507   7.62964   4.55573
O    -6.16576   8.31890   2.26591
C    -2.55024   6.33844  -0.09913
C    -1.68121   5.82778  -1.24094
O    -0.86010   6.59450  -1.74812
N    -1.86725   4.56292  -1.62210
C    -1.18419   4.01018  -2.77608
C    -3.34520   7.51826  -0.53885
O    -3.68846   7.63654  -1.70428
O    -3.57917   8.41498   0.39755
C    -4.38710   9.55221   0.05311
N    -2.26750   5.92673   1.14141
C    -1.17566   4.91216   1.27661
H    -2.11423   4.05169   5.79091
H    -3.89158   4.21152   5.77709
H    -2.89730   5.36632   6.71636
H    -2.79959   6.67130   4.83379
H    -6.12824   3.29698  -0.58180
H    -7.04323   3.86646  -1.99148
H    -8.58683   5.16575  -0.51376
H    -8.62097   3.41755  -0.37357
H    -7.19475   3.62867   1.76040
H    -8.88827   4.07683   1.79265
H    -7.75323   6.56578   1.25607
H    -8.26281   5.97348   2.84357
H    -6.06956   8.70213   4.78398
H    -6.94136   7.13858   5.01026
H    -5.17205   7.14963   4.98236
H    -2.61279   4.02869  -1.18658
H    -1.42221   4.58606  -3.68397
H    -1.51080   2.97294  -2.91476
H    -0.09346   4.02693  -2.62935
H    -3.89132  10.13836  -0.73291
H    -5.37641   9.22225  -0.28921
H    -4.47466  10.13672   0.97471
H    -0.36129   5.20724   0.60775
H    -1.53516   3.90834   1.03827
H    -0.79603   4.94371   2.29943
