35
Generated by autodE on: 2022-06-17. E = -820.631590 Ha
C    -0.49876   2.64334   0.65850
O    -0.92412   1.55432  -0.18437
C    -1.43125   0.49281   0.41702
O    -1.65860   0.39663   1.60056
C    -1.64405  -0.65745  -0.58076
C    -2.59621  -1.60166  -0.00965
N    -3.35990  -2.36103   0.41921
N    -2.21322  -0.10767  -1.87794
N    -1.34264  -0.04065  -2.74904
C    -0.02728  -0.50019  -2.30737
C    -0.25277  -1.29542  -1.00577
C    -0.42631  -2.78492  -1.33810
C     0.79502  -1.13294   0.06884
C     1.66663  -0.11388   0.19579
C     2.58552   0.02666   1.31130
C     3.36751   1.10203   1.57442
C     4.26227   1.12499   2.78127
C     3.40810   2.34910   0.73647
H    -0.04308   3.37858  -0.01298
H     0.23490   2.28205   1.39182
H    -1.36507   3.07748   1.17627
H     0.58419   0.40432  -2.18358
H     0.43502  -1.09947  -3.10276
H    -0.66438  -3.36625  -0.43592
H     0.51624  -3.16915  -1.75485
H    -1.22383  -2.94452  -2.07909
H     0.77885  -1.91291   0.83814
H     1.67697   0.67739  -0.55710
H     2.61828  -0.81462   2.01341
H     5.31572   1.27009   2.48203
H     4.01092   1.97711   3.43765
H     4.19142   0.19846   3.36947
H     4.44176   2.55688   0.40916
H     2.76679   2.30923  -0.15301
H     3.09714   3.21929   1.34105
