23
Generated by autodE on: 2022-06-17. E = -351.521384 Ha
C    -3.59235   0.26417   1.15007
C    -2.56774   0.13515   0.27866
C    -2.81132  -0.00298  -1.20250
C    -1.19055   0.12784   0.76793
C    -0.07880   0.00496   0.00005
C     1.26609   0.00365   0.53866
C     2.42534  -0.11717  -0.15645
C     2.50865  -0.27557  -1.64815
C     3.75125  -0.09947   0.55044
H    -4.63225   0.27269   0.81187
H    -3.41179   0.36427   2.22481
H    -3.88581   0.01732  -1.43299
H    -2.39222  -0.94732  -1.58793
H    -2.32131   0.81028  -1.76330
H    -1.06752   0.23196   1.85272
H    -0.19367  -0.09883  -1.08231
H     1.33913   0.11322   1.62750
H     1.53079  -0.29597  -2.14607
H     3.04373  -1.20723  -1.90371
H     3.10112   0.54669  -2.08703
H     4.38592   0.72178   0.17151
H     4.31118  -1.03179   0.35526
H     3.64156   0.01925   1.63840
