35
Generated by autodE on: 2022-06-17. E = -820.579141 Ha. Imaginary frequency = -404.4 cm-1
C    -0.23335   2.46517   0.91491
O    -0.87215   1.53556   0.02593
C    -1.39673   0.43276   0.57362
O    -1.28203   0.12686   1.75025
C    -2.10229  -0.39094  -0.39887
C    -2.92930  -1.44387   0.02985
N    -3.56738  -2.35535   0.38520
N    -2.24069   0.07071  -1.68899
N    -1.59296   0.18295  -2.64935
C     0.16794  -0.70497  -2.51133
C     0.23356  -1.53434  -1.38119
C    -0.36823  -2.91250  -1.46129
C     1.00204  -1.22784  -0.19836
C     1.79402  -0.13439  -0.00489
C     2.50245   0.10869   1.22237
C     3.23689   1.21436   1.52684
C     3.90944   1.33916   2.86146
C     3.42108   2.38763   0.61100
H     0.22537   3.22526   0.27292
H     0.53184   1.96589   1.52130
H    -0.98338   2.92811   1.57327
H     0.76709   0.20812  -2.55288
H    -0.01162  -1.18420  -3.47594
H    -0.75358  -3.24529  -0.48639
H     0.40868  -3.63683  -1.76678
H    -1.18035  -2.96210  -2.20034
H     0.92368  -1.95261   0.61886
H     1.88739   0.60116  -0.80749
H     2.41533  -0.67060   1.98786
H     4.99793   1.47907   2.73563
H     3.54673   2.23589   3.39489
H     3.73908   0.45929   3.49822
H     4.49626   2.57477   0.44484
H     2.93471   2.27153  -0.36533
H     3.02118   3.29974   1.08779
