32
Generated by autodE on: 2022-06-17. E = -818.497731 Ha
C    -3.74004   0.96262   0.66237
N    -2.72415   0.09944   0.09711
C    -1.58084  -0.16191   0.75336
O    -1.33835   0.25402   1.89647
N    -0.67827  -1.00321   0.09708
C     0.77188  -0.88852   0.40063
C     1.08722  -0.34203   1.78685
O     1.23606  -1.09167   2.74020
C     1.35426   1.10867   1.90570
C     1.69135   1.86721   0.84645
C     1.78566   1.32709  -0.52257
O     2.20752   2.02790  -1.43642
C     1.33167  -0.09006  -0.79770
C     0.13709  -0.07551  -1.81690
C     0.54660  -0.23280  -3.26697
N    -0.80899  -1.09625  -1.30808
C    -0.58747  -2.46722  -1.76627
H    -4.61278   0.96182  -0.00230
H    -4.05519   0.60416   1.65397
H    -3.38479   2.00090   0.77380
H    -2.77096  -0.21069  -0.86897
H     1.18451  -1.90531   0.39176
H     1.33669   1.51633   2.91971
H     1.94627   2.92438   0.95786
H     2.18981  -0.61975  -1.23729
H    -0.38325   0.88818  -1.69931
H    -0.33318  -0.23722  -3.92822
H     1.18383   0.61831  -3.54520
H     1.12339  -1.15442  -3.43287
H     0.44097  -2.83672  -1.59604
H    -1.28928  -3.12600  -1.23794
H    -0.80371  -2.53006  -2.84062
