12
Generated by autodE on: 2022-06-17. E = -381.636090 Ha
O    -2.65825  -0.21160   0.00065
C    -1.43542  -0.11447   0.00037
C    -0.56960  -1.31837  -0.01278
C     0.77059  -1.21153  -0.01347
C     1.43542   0.11447  -0.00038
O     2.65825   0.21160  -0.00064
C     0.56960   1.31837   0.01278
C    -0.77059   1.21153   0.01347
H    -1.08105  -2.28373  -0.02143
H     1.42861  -2.08367  -0.02263
H     1.08105   2.28373   0.02144
H    -1.42862   2.08367   0.02264
