24
Generated by autodE on: 2022-07-27. E = -593.035903 Ha
C     2.25037   1.40790   2.05436
C     1.62597   0.78096   0.83485
O     1.00827   1.45224  -0.00238
C     1.82290  -0.64756   0.65855
C     2.77301  -1.44975   1.47854
O     1.35717  -1.31213  -0.38706
N     0.36542  -1.07295  -1.25388
C    -0.76096  -0.39122  -0.86351
C    -1.20388  -0.09097   0.45074
C    -2.49524   0.39059   0.66023
C    -3.34692   0.66243  -0.41471
C    -2.90633   0.40866  -1.72323
C    -1.64386  -0.12033  -1.94523
H     1.98777   2.47324   2.08126
H     1.89610   0.91285   2.97294
H     3.34718   1.30484   2.03312
H     2.37021  -1.60435   2.49451
H     3.74371  -0.94185   1.59015
H     2.92782  -2.43278   1.01415
H    -0.56939  -0.27436   1.31565
H    -2.82715   0.58638   1.68257
H    -4.34201   1.07625  -0.23833
H    -3.56171   0.61655  -2.57219
H    -1.30484  -0.35946  -2.95496
