24
Generated by autodE on: 2022-07-02. E = -593.065074 Ha
C    -2.59557   0.75074  -1.67378
C    -3.03006   0.36575  -0.28280
O    -4.21242   0.37011   0.06475
C    -2.00033  -0.02740   0.68300
C    -2.25568  -0.43442   2.07232
O    -0.78690   0.00529   0.21303
N     0.24834  -0.33006   0.98063
C     1.42473  -0.21328   0.26171
C     2.60136  -0.54538   0.97244
C     3.84589  -0.46550   0.35402
C     3.94895  -0.05482  -0.98106
C     2.78617   0.27543  -1.69070
C     1.53323   0.20115  -1.08752
H    -1.89899   1.60288  -1.64085
H    -2.06633  -0.08412  -2.15901
H    -3.48172   1.01923  -2.26261
H    -1.86523  -1.45312   2.24836
H    -3.33071  -0.39832   2.28022
H    -1.70775   0.22527   2.76930
H     2.50999  -0.86420   2.01278
H     4.74490  -0.72566   0.91792
H     4.92580   0.00800  -1.46521
H     2.85826   0.59690  -2.73275
H     0.63762   0.46140  -1.65136
