39
Generated by autodE on: 2022-07-02. E = -1554.890088 Ha
F    -2.47311   2.65507   1.72003
C    -1.78623   2.07586   0.72308
F    -2.62180   1.95772  -0.32284
F    -0.82023   2.93718   0.35886
C    -1.22003   0.69997   1.14574
C    -2.40346  -0.20027   1.52238
C    -2.93444  -1.09965   0.58890
C    -4.03016  -1.90182   0.91820
C    -4.61053  -1.81002   2.18590
C    -4.08828  -0.91082   3.12058
C    -2.99198  -0.10978   2.79239
C    -0.43386   0.17287   0.03028
C     0.51110  -0.14285  -0.65326
C     1.90235  -0.41516  -1.00617
C     2.10238  -1.94358  -1.15531
F     1.25882  -2.47435  -2.05076
F     3.34890  -2.24544  -1.54384
F     1.88392  -2.56324   0.01295
C     2.25839   0.30267  -2.32930
F     1.56710  -0.18346  -3.36945
F     3.56086   0.19505  -2.61933
F     1.97145   1.60904  -2.23521
C     2.80724   0.14744   0.14832
C     2.21087   0.10439   1.56771
C     1.25000   1.26042   1.96702
C    -0.19839   0.87492   2.32984
H    -2.48632  -1.17679  -0.40382
H    -4.42899  -2.60125   0.17987
H    -5.46641  -2.43727   2.44571
H    -4.53529  -0.83074   4.11414
H    -2.60191   0.58891   3.53290
H     3.75744  -0.40471   0.11989
H     3.04427   1.19095  -0.10201
H     3.07598   0.13375   2.24728
H     1.73153  -0.86896   1.74611
H     1.66252   1.74156   2.86692
H     1.25204   2.04090   1.19238
H    -0.18910  -0.07835   2.87702
H    -0.61461   1.62550   3.01670
