63
Generated by autodE on: 2022-07-02. E = -2147.905358 Ha. Imaginary frequency = -204.8 cm-1
C     1.54537   3.25785  11.23085
C     0.73998   2.70312  10.08084
O    -0.09533   3.39685   9.51332
C     1.02595   1.28516   9.72787
C     2.04597   0.50760  10.49462
O     0.28395   0.46748   9.00543
N    -0.54961   0.69332   7.97841
C    -1.57113   1.62926   8.16053
C    -2.27110   1.70861   9.38249
C    -3.40023   2.51815   9.49185
C    -3.85027   3.26546   8.39820
C    -3.15494   3.18696   7.18523
C    -2.03032   2.37394   7.05849
C     1.01135   1.21225   6.55273
C     1.71816   2.06718   7.10476
C     2.75619   3.09853   6.89600
C     4.05470   2.74573   7.66234
F     3.86303   2.56376   8.97742
F     4.59455   1.61379   7.19142
F     4.97144   3.71910   7.52827
C     2.25341   4.50104   7.35860
F     0.95190   4.66136   7.08299
F     2.40858   4.70175   8.67721
F     2.91660   5.48872   6.73944
C     3.11027   3.14150   5.37772
C     1.93243   3.39626   4.41495
C     1.49564   2.18998   3.57020
C     0.46161   1.21192   4.14027
C     0.84744   0.31922   5.36364
C     2.16178  -0.47208   5.16310
C     2.93174  -0.86231   6.26820
C     4.09494  -1.61618   6.09970
C     4.50552  -1.99958   4.82018
C     3.73296  -1.63501   3.71450
C     2.56674  -0.88381   3.88485
C    -0.26177  -0.75588   5.50051
F    -0.28855  -1.53051   4.39066
F    -0.05261  -1.58987   6.52809
F    -1.49480  -0.24253   5.61466
H     1.24657   4.30105  11.39154
H     1.36836   2.67437  12.14829
H     2.62307   3.21600  11.02012
H     1.73809   0.38514  11.54755
H     3.01646   1.01872  10.49842
H     2.16509  -0.48646  10.04499
H    -1.92702   1.12437  10.23782
H    -3.93078   2.56758  10.44602
H    -4.73128   3.90429   8.48977
H    -3.48835   3.77307   6.32520
H    -1.48491   2.33489   6.11778
H     3.56883   2.17181   5.14558
H     3.88989   3.90222   5.23874
H     2.25742   4.18005   3.71475
H     1.06183   3.81340   4.94023
H     2.39191   1.64628   3.23465
H     1.02941   2.58422   2.65283
H     0.16177   0.54014   3.32398
H    -0.44281   1.77101   4.42002
H     2.62657  -0.57045   7.27298
H     4.68295  -1.90103   6.97527
H     5.41976  -2.58235   4.68544
H     4.03618  -1.93515   2.70876
H     1.97603  -0.62563   3.00666
