25
Generated by autodE on: 2022-06-21. E = -536.117189 Ha
C    -3.65848   0.31062  -1.40016
C    -2.70278   0.20019  -0.26498
C    -3.17957   0.34343   1.13405
N    -1.43896  -0.03314  -0.52647
C    -0.36761  -0.31600   0.32940
C    -0.60008  -1.06682   1.48648
N    -0.76522  -1.71686   2.45194
C     0.97716   0.03690  -0.09429
C     1.21112   0.90023  -1.19266
C     2.50958   1.20196  -1.60853
C     3.61855   0.68021  -0.93561
C     3.40351  -0.15593   0.16896
C     2.11296  -0.47683   0.58105
H    -3.14943   0.27732  -2.37428
H    -4.23613   1.24562  -1.31669
H    -4.38896  -0.51679  -1.35848
H    -2.44309   0.90361   1.73394
H    -3.31133  -0.63626   1.62533
H    -4.14700   0.86306   1.14918
H    -1.19169  -0.01857  -1.52053
H     0.37293   1.36320  -1.71795
H     2.65224   1.86887  -2.46305
H     4.63256   0.92592  -1.25851
H     4.25592  -0.57123   0.71326
H     1.97067  -1.14257   1.43558
