45
Generated by autodE on: 2022-06-21. E = -993.806817 Ha. Imaginary frequency = -475.8 cm-1
C    -4.30362   0.18268  -0.78619
N    -2.91082  -0.15878  -1.03106
C    -2.64569  -1.11876  -1.99535
C    -1.47578  -1.77844  -2.07995
C    -0.34287  -1.45156  -1.13828
C    -0.89015  -0.90333   0.15768
C    -0.55970  -1.46823   1.46818
N     0.47254  -2.36249   1.53110
O    -1.19763  -1.19009   2.50575
C    -2.02416  -0.03616   0.07560
C    -1.31577   1.86394   0.03403
C    -1.68884   2.32515   1.42803
C    -2.01286   2.62398  -1.06984
N     0.02986   1.69105  -0.25111
C     0.90341   0.91707   0.45735
C     0.93434   0.99402   1.87740
N     1.05326   1.00421   3.03797
C     2.11812   0.38432  -0.17756
C     3.01604  -0.40493   0.57467
C     4.13806  -0.97795  -0.02087
C     4.40555  -0.77019  -1.37828
C     3.53491   0.02260  -2.13160
C     2.40430   0.59132  -1.54402
H    -4.37082   1.09192  -0.17561
H    -4.84176  -0.62456  -0.25243
H    -4.81924   0.37249  -1.73875
H    -3.46833  -1.30601  -2.69026
H    -1.32776  -2.52072  -2.86684
H     0.32856  -0.71444  -1.62236
H     0.28311  -2.33909  -0.97104
H     0.79037  -2.60878   2.46312
H     1.16969  -2.39502   0.79660
H    -2.56504   0.06468   1.01823
H    -1.19940   3.28842   1.65171
H    -1.41872   1.60738   2.20944
H    -2.77636   2.47506   1.47329
H    -3.10085   2.58463  -0.94799
H    -1.71559   3.68635  -1.03962
H    -1.75898   2.21835  -2.06045
H     0.22476   1.70088  -1.24970
H     2.82655  -0.57760   1.63432
H     4.81091  -1.59052   0.58367
H     5.28728  -1.21686  -1.84278
H     3.73410   0.20380  -3.19021
H     1.75824   1.21001  -2.16961
