40
Generated by autodE on: 2022-10-07. E = -1272.403077 Ha
C     3.87708  -1.62787   1.96980
N     2.95302  -0.64454   1.44258
C     2.50442  -0.74669   0.15903
O     3.04583  -1.46435  -0.69749
N     1.43847   0.05163  -0.16701
N     0.62339   0.60988   0.85451
C    -0.74548   0.31414   0.39089
C    -1.76456   1.26588   1.00531
O    -2.86634   1.45433   0.52978
O    -1.35492   1.79271   2.15786
C    -2.25841   2.69979   2.80748
C    -1.16893  -1.11484   0.74515
C    -2.33662  -1.65733   0.18569
C    -2.73970  -2.95600   0.50260
C    -1.97965  -3.73445   1.38212
C    -0.82022  -3.19821   1.94739
C    -0.42087  -1.89457   1.63584
C    -0.63772   0.52269  -1.14432
C    -0.63953   2.02467  -1.52855
O    -0.35731   2.86373  -0.62643
O    -0.91871   2.28864  -2.72105
C     0.71939  -0.16009  -1.42652
C     1.44627   0.38550  -2.67887
O     1.16537  -0.19843  -3.75639
O     2.21920   1.36288  -2.52696
H     3.41289  -2.62212   2.10055
H     4.73562  -1.74167   1.29374
H     4.24828  -1.28731   2.94556
H     2.30250  -0.19942   2.08469
H     0.70367   1.62764   0.76912
H    -1.75625   3.01848   3.72808
H    -2.45371   3.56684   2.16005
H    -3.20634   2.19583   3.04404
H    -2.94041  -1.05706  -0.49645
H    -3.65157  -3.36191   0.05818
H    -2.29144  -4.75292   1.62553
H    -0.21925  -3.79472   2.63805
H     0.47963  -1.48059   2.08562
H    -1.43322   0.02464  -1.70767
H     0.55918  -1.23815  -1.58303
