48
Generated by autodE on: 2022-06-13. E = -1864.190608 Ha
C     2.68095  -0.86966  -3.93518
O     1.38527  -0.46255  -3.47786
C     1.29781  -0.05756  -2.20860
O     2.27363   0.05930  -1.49203
C    -0.13379   0.38728  -1.81854
C    -1.17528  -0.04383  -2.85504
N    -0.14035   1.85401  -1.71930
C     0.10388   2.26124  -0.33397
C     1.52279   2.79825  -0.09801
C    -0.28565   1.00911   0.45430
C    -0.43874  -0.05499  -0.37140
C    -0.93309  -1.48298  -0.11328
C    -2.47931  -1.48370  -0.10943
C    -0.38179  -2.49129  -1.14275
C    -1.26401  -3.62789  -1.58834
O     0.77905  -2.43385  -1.51827
C    -0.41758  -2.13789   1.21288
C     1.02798  -1.81674   1.62878
C     1.12181  -0.90662   2.85698
C     0.92737   0.60140   2.67430
C    -0.33825   1.11621   1.97296
Cl   -1.84148   0.37908   2.71811
Cl   -0.49970   2.89158   2.48242
H     3.03540  -1.72915  -3.34772
H     3.40165  -0.04407  -3.84743
H     2.55631  -1.15494  -4.98634
H    -1.20532  -1.12691  -3.02884
H    -0.94636   0.43459  -3.81709
H    -2.16694   0.29703  -2.53038
H     0.53289   2.27437  -2.35707
H    -0.59949   3.06646  -0.06756
H     2.27431   2.01871  -0.27108
H     1.70944   3.62577  -0.80209
H     1.64177   3.19861   0.91687
H    -2.88976  -1.27904  -1.10600
H    -2.86691  -2.45457   0.23004
H    -2.84875  -0.71551   0.57805
H    -2.09074  -3.24059  -2.20355
H    -1.71805  -4.14316  -0.72960
H    -0.66739  -4.33505  -2.17824
H    -0.53657  -3.22654   1.09989
H    -1.10823  -1.86624   2.01726
H     1.53436  -2.76073   1.88164
H     1.59521  -1.38811   0.78849
H     2.12457  -1.01224   3.30182
H     0.41366  -1.26667   3.62139
H     0.95748   1.06379   3.67088
H     1.76956   1.01875   2.10087
