28
Generated by autodE on: 2022-06-13. E = -1423.456404 Ha
C    -2.72726   0.14917  -1.88696
C    -1.52966   0.44362  -2.74204
O    -1.60687   0.58974  -3.94842
C    -0.15165   0.51220  -2.05167
C     0.75068   1.54027  -2.74972
C    -0.23237   0.75978  -0.61739
C    -0.05336   0.67377   0.57920
C     0.43379   0.01119   1.76511
Cl   -0.92739  -0.99595   2.47784
Cl    0.96722   1.19298   3.04700
C     1.61036  -0.90344   1.38574
C     1.36684  -1.82576   0.17510
C     1.64912  -1.26591  -1.24773
C     0.44629  -0.94423  -2.15842
H    -3.58999  -0.10796  -2.51489
H    -2.51216  -0.65524  -1.16749
H    -2.96073   1.04921  -1.29308
H     1.76610   1.50759  -2.33104
H     0.35345   2.55811  -2.62245
H     0.79899   1.31374  -3.82314
H     2.46744  -0.24193   1.18381
H     1.85863  -1.49739   2.27774
H     2.03726  -2.68510   0.32661
H     0.34605  -2.23841   0.22810
H     2.22517  -2.03542  -1.78419
H     2.32074  -0.39409  -1.18336
H     0.73058  -1.07481  -3.21375
H    -0.35839  -1.66883  -1.95332
