20
Generated by autodE on: 2022-07-27. E = -440.653715 Ha
C     0.66782   2.95234   2.25933
C    -0.26458   2.07218   1.51128
N     0.15904   1.05778   0.80248
C    -0.53342   0.14049   0.04985
C    -2.01606   0.24496  -0.02386
C     0.29511  -0.82237  -0.57893
O     1.53641  -0.87534  -0.48468
O    -0.39175  -1.73560  -1.33300
C     0.38966  -2.72765  -1.99076
H     0.57389   4.00047   1.92443
H     0.43392   2.94746   3.33865
H     1.71366   2.63581   2.12716
H    -1.34041   2.25571   1.53700
H     1.17280   0.88787   0.78082
H    -2.42822  -0.54976  -0.65661
H    -2.34126   1.21798  -0.44095
H    -2.48515   0.16415   0.97615
H     0.95391  -3.33904  -1.26900
H     1.10067  -2.27476  -2.69964
H    -0.31855  -3.36402  -2.53700
