20
Generated by autodE on: 2022-06-13. E = -440.652809 Ha
C    -3.28201  -1.43037  -0.13912
C    -2.44291  -0.20926  -0.04904
N    -1.13474  -0.26576  -0.03158
C    -0.20783   0.74632   0.04627
C    -0.68663   2.15275   0.12746
C     1.16497   0.39472   0.04270
O     2.12443   1.17717   0.10577
O     1.37727  -0.96737  -0.04277
C     2.73259  -1.40027  -0.05147
H    -2.66730  -2.34318  -0.17503
H    -3.92090  -1.40351  -1.03969
H    -3.96523  -1.50246   0.72552
H    -2.90589   0.77767   0.00365
H    -0.71635  -1.20005  -0.08219
H    -1.32196   2.32662   1.01754
H     0.17246   2.83340   0.18204
H    -1.29675   2.43703  -0.75181
H     2.70582  -2.49528  -0.12405
H     3.25441  -1.10514   0.87248
H     3.28029  -0.98740  -0.91321
