48
Generated by autodE on: 2022-06-13. E = -1864.117302 Ha. Imaginary frequency = -182.4 cm-1
C     0.81191  -2.08411  -4.36850
O     0.03138  -1.15448  -3.61353
C     0.71415  -0.19062  -2.95691
O     1.94473  -0.12106  -3.00606
C    -0.12512   0.70199  -2.18695
C    -1.58500   0.92720  -2.44714
N     0.59702   1.70221  -1.60200
C     0.16076   2.56068  -0.69956
C     1.08199   3.56879  -0.10747
C    -0.35665   0.63567   0.79836
C    -0.42907  -0.36377   0.06609
C    -0.66187  -1.81886  -0.10064
C    -1.91886  -2.10961  -0.93945
C     0.58403  -2.50955  -0.68149
C     0.41773  -3.88424  -1.27057
O     1.67978  -1.97446  -0.62597
C    -0.86784  -2.41443   1.33975
C     0.19530  -1.99639   2.37199
C    -0.30644  -1.09066   3.50638
C    -1.10595   0.16913   3.14783
C    -0.46780   1.14830   2.15473
Cl   -1.52415   2.67207   2.17988
Cl    1.19627   1.63411   2.76796
H     1.55647  -2.58056  -3.73047
H     1.32945  -1.57545  -5.19584
H     0.10522  -2.82137  -4.76773
H    -2.00147   0.11430  -3.05146
H    -1.73076   1.87417  -3.00096
H    -2.17421   0.99822  -1.52138
H     1.61026   1.57340  -1.68375
H    -0.91479   2.72156  -0.64557
H     1.04121   4.51301  -0.68146
H     0.78465   3.80183   0.92288
H     2.12253   3.21055  -0.10412
H    -2.19465  -3.17062  -0.85991
H    -1.76119  -1.86753  -1.99661
H    -2.76052  -1.51219  -0.56128
H     1.40481  -4.33441  -1.43665
H    -0.11255  -3.80807  -2.23222
H    -0.19004  -4.52990  -0.62006
H    -0.91405  -3.50990   1.24809
H    -1.87144  -2.09720   1.66352
H     0.62082  -2.89762   2.84079
H     1.03848  -1.50807   1.86154
H     0.55740  -0.79554   4.12256
H    -0.96577  -1.67936   4.16672
H    -2.07969  -0.09974   2.71036
H    -1.31404   0.72141   4.07611
