24
Generated by autodE on: 2022-10-07. E = -613.208398 Ha
C     3.08803   1.64626  -0.57512
O     1.86396   0.94338  -0.33970
C     1.96681  -0.38061  -0.11775
O     3.03959  -0.97301  -0.11109
C     0.68352  -1.03973   0.11091
C     0.60049  -2.49978   0.38195
O    -0.33639  -0.22603   0.06660
C    -1.64029  -0.30912   0.19443
C    -2.38634  -1.57229   0.43958
C    -2.29804   0.98084   0.05786
C    -1.43818   2.19812  -0.19997
O    -3.52956   1.07070   0.15491
H     3.76060   1.56010   0.29123
H     2.80865   2.69488  -0.73128
H     3.59696   1.25435  -1.46834
H     0.17869  -2.70737   1.37762
H     1.61559  -2.91208   0.34579
H    -0.01302  -3.02528  -0.36531
H    -2.25361  -2.29550  -0.37982
H    -2.08672  -2.05991   1.37933
H    -3.45114  -1.31762   0.50617
H    -2.08693   3.08029  -0.27356
H    -0.86285   2.08232  -1.13133
H    -0.70777   2.34216   0.61095
