24
Generated by autodE on: 2022-10-13. E = -613.203389 Ha
C     3.92521   0.77619  -0.35622
O     2.66629   1.16938   0.20051
C     1.63715   0.31496   0.02046
O     1.73828  -0.72949  -0.61581
C     0.46939   0.73168   0.77666
C     0.54938   1.62788   1.96303
O    -0.70230   0.16210   0.58250
C    -1.25160  -0.37892  -0.49140
C    -0.70813  -0.18073  -1.84516
C    -2.53962  -1.00336  -0.22857
C    -3.04820  -1.02772   1.19285
O    -3.18097  -1.51385  -1.15598
H     3.84974   0.66519  -1.44808
H     4.63005   1.57832  -0.10761
H     4.26520  -0.17447   0.08133
H     1.44557   1.42332   2.56798
H     0.59810   2.68798   1.65504
H    -0.34992   1.49828   2.58183
H     0.13963  -0.84587  -2.08244
H    -1.51315  -0.34109  -2.57346
H    -0.31202   0.85015  -1.92875
H    -3.02739  -0.02275   1.64146
H    -4.07389  -1.41848   1.19672
H    -2.41097  -1.67386   1.81818
