10
Generated by autodE on: 2022-10-07. E = -455.051693 Ha
O     2.77676   1.01881   0.28640
C     1.96667   0.13970  -0.12062
O     2.27095  -0.91064  -0.75046
C     0.50550   0.39783   0.18778
C    -0.50551  -0.39779  -0.18785
C    -1.96668  -0.13969   0.12059
O    -2.77675  -1.01892  -0.28621
O    -2.27095   0.91071   0.75035
H     0.28579   1.30907   0.75432
H    -0.28577  -1.30903  -0.75438
