34
Generated by autodE on: 2022-10-07. E = -1068.264233 Ha. Imaginary frequency = -218.3 cm-1
C     4.26757   0.12605  -0.15384
O     3.06566   0.22705   0.61535
C     2.10904  -0.68188   0.35846
O     2.29460  -1.65644  -0.35331
C     0.87740  -0.36956   1.09593
C     0.94744   0.24067   2.46031
O    -0.22967  -1.06005   0.87931
C    -0.88904  -1.40372  -0.21792
C    -0.27846  -1.66269  -1.54885
C    -2.25292  -1.85826   0.07342
C    -2.75049  -1.78135   1.49463
O    -2.97009  -2.28405  -0.83829
C    -1.15419   1.11360  -0.68167
C    -2.42075   1.21495   0.13019
O    -2.31699   1.50592   1.35973
O    -3.50351   0.98527  -0.47490
C     0.04805   1.57773  -0.22493
C     1.25393   1.83921  -1.09815
O     1.41299   1.14500  -2.14422
O     2.02744   2.75377  -0.70635
H     4.03349   0.21943  -1.22465
H     4.90229   0.96022   0.16665
H     4.77539  -0.83163   0.03173
H     1.30676  -0.48313   3.21413
H     1.64308   1.08937   2.45292
H    -0.04835   0.59873   2.75311
H     0.27182  -2.61884  -1.55242
H    -1.09801  -1.73613  -2.27504
H     0.40865  -0.86640  -1.85327
H    -2.68420  -0.74959   1.87245
H    -3.79309  -2.12340   1.52317
H    -2.13529  -2.41303   2.15447
H    -1.27217   0.83021  -1.72929
H     0.06347   2.07001   0.74872
