21
Generated by autodE on: 2022-07-27. E = -570.060406 Ha
C     0.01009   3.35957   0.80787
N     0.43253   2.00217   0.53365
C    -0.45489   1.04088   0.24666
O    -1.68431   1.22554   0.21611
C     0.06040  -0.32359  -0.05559
C    -1.00386  -1.36273  -0.34421
C    -1.83502  -1.81532   0.81529
O    -1.11601  -1.80999  -1.47057
N     1.33597  -0.62863  -0.18460
C     1.77289  -1.99690  -0.54861
O     2.29307   0.19657  -0.02909
H    -0.69305   3.39123   1.65480
H     0.89218   3.96209   1.05571
H    -0.49399   3.80838  -0.06372
H     1.41736   1.73523   0.46646
H    -2.68286  -2.41916   0.46537
H    -1.18921  -2.42964   1.46765
H    -2.17774  -0.95714   1.40901
H     1.90932  -2.03460  -1.63729
H     2.73142  -2.15205  -0.04292
H     1.04532  -2.74986  -0.23096
