44
Generated by autodE on: 2022-06-18. E = -921.547286 Ha. Imaginary frequency = -420.1 cm-1
C     0.34590  -2.77634   1.69314
C    -0.37539  -1.66544   1.92389
C    -1.38952  -1.60760   3.03879
C    -0.19097  -0.38243   1.18168
C     1.13785   0.13097   0.99109
C     1.39817   1.55656   1.12527
C     2.61152   2.15559   1.06120
C     2.74239   3.64380   1.21255
C     3.89893   1.41905   0.82775
O     1.39102  -0.07867  -0.98215
N     0.43567  -0.90864  -1.34295
C     0.89609  -2.26658  -1.65297
C    -0.78513  -0.59890  -0.78712
C    -1.91190  -1.59155  -1.06243
C    -2.94333  -1.84726  -0.00898
O    -1.94722  -2.15607  -2.14304
C    -1.32186   0.82121  -0.94949
O    -2.51197   1.05881  -0.69630
N    -0.47030   1.75859  -1.38609
C    -0.84890   3.15652  -1.41820
H     1.11239  -2.82405   0.91845
H     0.19297  -3.67617   2.29557
H    -1.05379  -0.89937   3.81655
H    -1.53683  -2.59147   3.50727
H    -2.36314  -1.23755   2.68264
H    -0.91956   0.38024   1.47273
H     1.96044  -0.55186   1.20650
H     0.51884   2.19361   1.26444
H     1.77078   4.13040   1.38198
H     3.41227   3.89322   2.05472
H     3.20398   4.08708   0.31239
H     3.76546   0.34199   0.66652
H     4.58619   1.56502   1.67977
H     4.41444   1.83441  -0.05560
H     1.06386  -2.36144  -2.73650
H     1.85264  -2.41148  -1.13440
H     0.18537  -3.03330  -1.33553
H    -3.11716  -0.97054   0.62204
H    -2.56631  -2.66534   0.62724
H    -3.87376  -2.18141  -0.48766
H     0.51479   1.48761  -1.39954
H    -0.01013   3.74080  -1.81619
H    -1.09498   3.53152  -0.41027
H    -1.72758   3.31416  -2.06117
