27
Generated by autodE on: 2022-06-16. E = -611.654519 Ha
C     3.88288   1.31778   0.81105
N     2.54423   0.78459   0.68678
C     2.12443   0.03800  -0.34681
O     2.82245  -0.29473  -1.31261
C     0.68571  -0.40003  -0.27166
N    -0.08870  -0.03923   0.68014
C    -1.44629  -0.59128   0.42693
C    -2.05204  -1.14893   1.71429
C    -2.28124   0.61105  -0.08268
C    -2.52900   1.74261   0.87601
O    -2.71762   0.63170  -1.21973
C    -1.25350  -1.65726  -0.67589
C     0.07332  -1.26338  -1.34033
H     4.34282   1.00349   1.76070
H     4.49326   0.94407  -0.01963
H     3.87767   2.41919   0.77804
H     1.85368   0.99069   1.40362
H    -2.10286  -0.38844   2.50580
H    -1.43520  -1.98452   2.07768
H    -3.06874  -1.52575   1.52318
H    -2.82241   2.64311   0.32035
H    -3.35764   1.45807   1.54626
H    -1.65024   1.93925   1.50464
H    -1.15935  -2.64531  -0.20271
H    -2.09959  -1.68550  -1.37177
H     0.72007  -2.11090  -1.60811
H    -0.06418  -0.65999  -2.25410
