27
Generated by autodE on: 2022-06-16. E = -611.549275 Ha. Imaginary frequency = -314.4 cm-1
C     4.44640   0.45417   0.33201
N     3.08189   0.01766   0.56542
C     2.09156   0.30785  -0.29344
O     2.22812   0.92819  -1.35267
C     0.76587  -0.24670   0.03341
N    -0.14865  -0.00250   0.78861
C    -1.45411  -0.09168   0.95554
C    -2.02137  -0.72805   2.18884
C    -2.24641   0.71100   0.00816
C    -3.74634   0.63973   0.15560
O    -1.71312   1.41339  -0.85561
C    -1.42458  -1.86217  -1.03783
C    -0.11683  -1.72700  -1.41194
H     5.12411  -0.14877   0.94894
H     4.70802   0.31846  -0.72665
H     4.58634   1.51748   0.58776
H     2.85060  -0.45309   1.43574
H    -2.32081   0.02212   2.94143
H    -1.28326  -1.40132   2.64643
H    -2.91559  -1.31654   1.93893
H    -4.21875   1.20404  -0.65881
H    -4.09883  -0.40278   0.13995
H    -4.05152   1.07111   1.12333
H    -1.73708  -2.63658  -0.33242
H    -2.21758  -1.30780  -1.54248
H     0.63342  -2.45765  -1.09774
H     0.16336  -1.08699  -2.25380
