52
Generated by autodE on: 2022-10-22. E = -1649.064744 Ha
C    -4.54452  -2.86010  -0.50074
O    -3.83720  -1.78730   0.12934
C    -2.50388  -1.84503   0.17930
C    -1.54269  -2.71817  -0.18476
Cl   -1.59208  -4.24833  -0.99710
C    -0.22630  -1.97735   0.03024
O    -0.53940  -1.16287   1.17124
C    -1.73844  -0.60314   0.62866
C    -1.22887   0.07107  -0.67988
C    -0.11239  -0.92444  -1.11231
C     1.21227  -0.10426  -1.19345
C     1.52408   0.19400  -2.67386
C     2.37165  -0.85862  -0.53109
C     2.72189  -0.61936   0.80617
C     3.72894  -1.36026   1.43114
C     4.40395  -2.36438   0.73207
C     4.06115  -2.61650  -0.59947
C     3.05844  -1.86922  -1.22368
N     0.90227   1.12147  -0.43221
C     1.82996   2.23118  -0.52963
C    -0.51046   1.44809  -0.48469
C    -0.81857   2.29135  -1.68017
N    -0.99526   2.94748  -2.62184
C    -0.99547   2.19413   0.76598
C    -0.32880   2.01890   1.98461
C    -0.81681   2.61968   3.14775
C    -1.97790   3.39748   3.10675
C    -2.64724   3.57340   1.89212
C    -2.15652   2.97672   0.72764
H    -5.60940  -2.60374  -0.43726
H    -4.24846  -2.95498  -1.55611
H    -4.36181  -3.80999   0.02347
H     0.65233  -2.60381   0.20665
H    -2.26081   0.03918   1.34325
H    -2.04864   0.17084  -1.39959
H    -0.31017  -1.40485  -2.07699
H     2.45651   0.76694  -2.77924
H     1.62783  -0.73481  -3.24966
H     0.70739   0.77004  -3.13088
H     2.19492   0.15471   1.36157
H     3.98436  -1.15079   2.47292
H     5.19001  -2.94572   1.21992
H     4.57665  -3.40068  -1.15950
H     2.80363  -2.09464  -2.25974
H     1.62639   2.96150   0.26752
H     1.78210   2.76611  -1.49818
H     2.85727   1.86616  -0.39447
H     0.56679   1.40064   2.01672
H    -0.28590   2.47655   4.09188
H    -2.35887   3.86614   4.01712
H    -3.55522   4.17933   1.84787
H    -2.68891   3.11975  -0.21530
