35
Generated by autodE on: 2022-10-26. E = -767.258165 Ha
C    -0.69210  -1.59027  -1.47411
C     0.27349  -1.16413  -0.42631
C     1.26212  -2.14145   0.07061
C     0.83331  -3.40376   0.52351
C     1.75944  -4.34066   0.98112
C     3.12661  -4.04375   0.96757
C     3.56324  -2.80187   0.49564
C     2.64000  -1.85370   0.05431
N     0.26736   0.08651   0.01329
C     1.03973   0.49384   1.20424
C    -0.40219   1.11702  -0.69299
C    -0.14907   1.20227  -2.06353
N     0.07514   1.26215  -3.21702
C    -1.33862   2.01200  -0.03163
C    -1.72471   3.23165  -0.64014
C    -2.64447   4.08254  -0.03163
C    -3.20646   3.75954   1.21081
C    -2.84120   2.55593   1.82294
C    -1.93396   1.68874   1.21195
H    -0.87737  -2.66986  -1.40119
H    -0.29194  -1.39441  -2.48603
H    -1.63314  -1.02485  -1.38936
H    -0.23212  -3.64147   0.53695
H     1.41199  -5.30914   1.34768
H     3.85101  -4.78203   1.31895
H     4.63028  -2.57008   0.46661
H     2.99064  -0.89404  -0.32803
H     1.09699  -0.33007   1.92415
H     2.04878   0.80563   0.90636
H     0.53740   1.34887   1.66556
H    -1.28752   3.50916  -1.60248
H    -2.91981   5.01606  -0.52969
H    -3.92178   4.43225   1.68907
H    -3.28035   2.27656   2.78443
H    -1.70080   0.73832   1.69609
