35
Generated by autodE on: 2022-10-22. E = -767.257959 Ha
C    -2.20068  -1.35172  -2.23094
C    -1.29924  -1.02399  -1.08142
C    -1.60847   0.13256  -0.22727
C    -2.06630   1.33373  -0.79897
C    -2.37819   2.43247   0.00515
C    -2.25560   2.34307   1.39292
C    -1.81725   1.14497   1.97432
C    -1.48419   0.05574   1.17543
N    -0.24423  -1.79461  -0.84509
C    -0.13860  -3.08874  -1.54387
C     0.85323  -1.41634  -0.03970
C     1.39969  -2.40896   0.78305
N     1.88266  -3.22678   1.47667
C     1.37898  -0.05875   0.01688
C     2.14665   0.35765   1.13112
C     2.70555   1.63394   1.19222
C     2.51062   2.54928   0.15215
C     1.75126   2.15532  -0.95674
C     1.19206   0.88106  -1.02571
H    -1.63560  -1.53984  -3.15693
H    -2.78701  -2.26155  -2.01590
H    -2.91353  -0.53916  -2.40712
H    -2.15643   1.41847  -1.88315
H    -2.71673   3.36175  -0.45842
H    -2.50095   3.20069   2.02346
H    -1.73152   1.06326   3.06022
H    -1.13100  -0.86610   1.63891
H     0.61707  -3.70018  -1.04136
H    -1.09936  -3.61529  -1.52998
H     0.17496  -2.92068  -2.58411
H     2.30010  -0.33486   1.96173
H     3.29009   1.91935   2.07090
H     2.93802   3.55300   0.20529
H     1.58854   2.85266  -1.78278
H     0.61113   0.60807  -1.90768
