52
Generated by autodE on: 2022-10-22. E = -1648.960205 Ha. Imaginary frequency = -270.0 cm-1
C    -4.75997  -3.17524   0.24462
O    -4.05787  -1.94275   0.42962
C    -2.72236  -1.96606   0.40079
C    -1.75484  -2.89010   0.23950
Cl   -1.78374  -4.58871  -0.10064
C    -0.43978  -2.07924   0.19645
O    -0.75900  -1.04024   1.14159
C    -1.96317  -0.62113   0.47213
C    -1.42774  -0.34110  -0.93983
C    -0.42366  -1.27010  -1.11115
C     1.49753   0.13789  -1.21598
C     1.31662   0.23609  -2.71141
C     2.65292  -0.67402  -0.75573
C     2.68419  -1.24713   0.53398
C     3.74628  -2.05243   0.94008
C     4.81260  -2.30817   0.07086
C     4.79985  -1.74968  -1.20979
C     3.73253  -0.94842  -1.62040
N     1.04703   1.14584  -0.40824
C     1.85696   1.56336   0.75979
C    -0.17126   1.80767  -0.60361
C    -0.53770   2.26762  -1.89557
N    -0.93088   2.70777  -2.90618
C    -0.83863   2.53056   0.50503
C    -0.87087   2.02191   1.82328
C    -1.53799   2.70046   2.84245
C    -2.20962   3.89939   2.58238
C    -2.20229   4.41027   1.28108
C    -1.52652   3.74028   0.26109
H    -5.82821  -2.93402   0.31211
H    -4.53908  -3.60609  -0.74343
H    -4.49376  -3.89734   1.03132
H     0.46098  -2.63608   0.47189
H    -2.48693   0.17994   1.00286
H    -2.02207   0.14527  -1.71038
H    -0.10515  -1.71090  -2.05243
H     1.96069   1.03934  -3.11260
H     1.60930  -0.70717  -3.18692
H     0.29198   0.45247  -3.01554
H     1.86161  -1.07001   1.22352
H     3.73776  -2.48824   1.94187
H     5.64505  -2.93967   0.38971
H     5.62774  -1.93590  -1.89799
H     3.75349  -0.51874  -2.62186
H     1.64861   0.98961   1.66740
H     1.65307   2.62056   0.95585
H     2.91627   1.45548   0.50637
H    -0.39260   1.07219   2.04795
H    -1.54295   2.27696   3.84988
H    -2.73555   4.42546   3.38227
H    -2.72092   5.34525   1.05509
H    -1.52812   4.16654  -0.74301
