57
Generated by autodE on: 2022-06-24. E = -1267.205088 Ha
C    -2.01373  -0.73857   3.73506
N    -1.92499  -0.23361   2.37886
C    -1.18580  -0.85256   1.44473
O    -0.59115  -1.90777   1.70856
C    -0.99313  -0.10753   0.08399
C    -2.13565   0.87789  -0.17809
C    -3.47276   0.45087  -0.10229
C    -4.52259   1.31628  -0.41807
C    -4.25706   2.63143  -0.81189
C    -2.93221   3.06836  -0.88615
C    -1.88389   2.19786  -0.57398
N     0.31709   0.56205   0.14420
C     0.63586   1.35943   1.31134
C     1.37550  -0.16792  -0.57325
C     1.77990   0.61499  -1.84980
C     1.83547   2.11439  -1.80486
O     2.04329   0.00348  -2.87270
C     2.64071  -0.43839   0.25429
C     2.53583  -1.13156   1.47297
C     3.66764  -1.39537   2.24505
C     4.93133  -0.97558   1.81554
C     5.04858  -0.29136   0.60488
C     3.91281  -0.02309  -0.16719
C     0.66510  -1.47922  -0.98868
C     1.36195  -2.26615  -2.06093
O     0.81890  -2.88031  -2.96297
C    -0.82648  -1.10798  -1.13943
C    -1.10783  -0.37587  -2.46593
C    -1.73261  -2.34273  -1.08043
H    -1.02777  -0.73389   4.22814
H    -2.39279  -1.77188   3.74650
H    -2.69997  -0.10164   4.30647
H    -2.37604   0.64505   2.14958
H    -3.70385  -0.56800   0.21042
H    -5.55327   0.95926  -0.35460
H    -5.07761   3.31022  -1.05610
H    -2.70861   4.09361  -1.19099
H    -0.85369   2.54149  -0.64778
H    -0.17504   2.07640   1.50509
H     0.79253   0.77124   2.23515
H     1.55088   1.93944   1.13363
H     2.19596   2.48679  -0.83749
H     0.81770   2.50774  -1.95463
H     2.47224   2.47859  -2.62175
H     1.55811  -1.47012   1.81626
H     3.56078  -1.93511   3.18913
H     5.81741  -1.18411   2.41967
H     6.02820   0.03918   0.25184
H     4.04654   0.50867  -1.11004
H     0.73881  -2.14313  -0.11301
H     2.45883  -2.37035  -1.89461
H    -0.72924  -0.97229  -3.30542
H    -0.65087   0.61972  -2.51717
H    -2.18922  -0.23993  -2.60363
H    -1.54714  -2.95257  -0.18845
H    -2.79273  -2.05144  -1.09142
H    -1.55031  -2.96450  -1.96750
