14
Generated by autodE on: 2022-06-24. E = -270.683222 Ha
C    -1.29879   0.81737   0.41260
C    -0.72331  -0.48438  -0.06722
C    -1.70149  -1.59081  -0.30634
C     0.60597  -0.68231  -0.28406
C     1.65677   0.30590  -0.09313
O     1.51363   1.46781   0.28069
H    -2.38747   0.74547   0.54430
H    -0.84151   1.12386   1.36641
H    -1.07986   1.62869  -0.30011
H    -1.22115  -2.51292  -0.66145
H    -2.45804  -1.26921  -1.04368
H    -2.25777  -1.80704   0.62281
H     0.94398  -1.66251  -0.63279
H     2.68300  -0.07185  -0.32151
