43
Generated by autodE on: 2022-06-24. E = -996.478210 Ha
C     2.58620   1.02757  -3.21965
N     2.31303   0.53631  -1.88441
C     1.13679   0.76905  -1.27911
O     0.25701   1.47506  -1.78575
C     0.99850   0.19439   0.10828
C     2.18354   0.11581   0.97437
C     2.45408  -1.06042   1.70198
C     3.58853  -1.14653   2.50747
C     4.46880  -0.06292   2.60125
C     4.21327   1.10648   1.87666
C     3.08458   1.19557   1.06275
N    -0.21045  -0.12684   0.55268
C    -0.48840  -0.17352   2.00253
C    -1.22498  -0.57568  -0.30449
C    -0.85326  -1.46597  -1.35849
C    -1.94261  -2.09767  -2.20744
O     0.33646  -1.78318  -1.60855
C    -2.59850  -0.12132  -0.01455
C    -3.68614  -1.00234   0.14141
C    -4.96816  -0.51826   0.41048
C    -5.19258   0.85562   0.54872
C    -4.12027   1.74382   0.40947
C    -2.84195   1.26221   0.12495
H     2.42806   2.11500  -3.27323
H     3.62973   0.80586  -3.47420
H     1.92725   0.55053  -3.96442
H     2.96230  -0.11204  -1.45137
H     1.78127  -1.91461   1.61128
H     3.79164  -2.06745   3.05873
H     5.35664  -0.13172   3.23393
H     4.89698   1.95537   1.94723
H     2.88568   2.11293   0.50577
H     0.23259   0.44678   2.54373
H    -0.44375  -1.20982   2.36206
H    -1.49800   0.21450   2.17233
H    -1.50492  -2.36145  -3.18046
H    -2.80390  -1.43425  -2.36055
H    -2.31113  -3.02542  -1.74030
H    -3.52102  -2.07839   0.07140
H    -5.79606  -1.22196   0.52831
H    -6.19531   1.23121   0.76585
H    -4.28309   2.81981   0.51126
H    -2.01164   1.95887  -0.01051
