57
Generated by autodE on: 2022-06-24. E = -1267.116506 Ha. Imaginary frequency = -256.9 cm-1
C    -3.78751  -0.10653   2.81427
N    -2.85482  -0.36329   1.73351
C    -1.61949   0.16162   1.73818
O    -1.20570   0.82159   2.69902
C    -0.80823   0.06034   0.43228
C    -1.35148   1.25868  -0.33203
C    -2.62080   1.27099  -0.93180
C    -3.13657   2.44195  -1.49198
C    -2.41140   3.63530  -1.44118
C    -1.16524   3.64530  -0.80731
C    -0.64846   2.47553  -0.25080
N     0.58715   0.05047   0.63116
C     1.10297  -0.46647   1.92449
C     1.45550  -0.02169  -0.40959
C     1.18832   0.35846  -1.84221
C     2.40173   0.42535  -2.74434
O     0.08590   0.60183  -2.31537
C     2.90991  -0.08405  -0.04563
C     3.71588  -1.19390  -0.33691
C     5.07166  -1.18415   0.00020
C     5.63816  -0.06870   0.62423
C     4.84085   1.04425   0.90880
C     3.48496   1.03683   0.57598
C     0.47942  -2.14012  -0.92369
C     0.87405  -2.38612  -2.27922
O     1.92778  -2.94906  -2.61987
C    -0.88099  -1.89725  -0.50550
C    -1.26994  -2.80786   0.65475
C    -1.95241  -1.82691  -1.57811
H    -4.71761  -0.65208   2.61312
H    -4.01525   0.96888   2.90022
H    -3.37812  -0.44534   3.77807
H    -3.18717  -0.85846   0.91597
H    -3.22023   0.36573  -0.97619
H    -4.12013   2.41772  -1.96744
H    -2.81840   4.54993  -1.87848
H    -0.59057   4.57224  -0.73828
H     0.32256   2.50497   0.24506
H     1.49374   0.35547   2.53618
H     0.30518  -0.96158   2.47764
H     1.89905  -1.19290   1.74139
H     2.90359  -0.55028  -2.81309
H     3.14091   1.14663  -2.36644
H     2.06068   0.72685  -3.74291
H     3.28764  -2.05945  -0.84300
H     5.68896  -2.05573  -0.22974
H     6.69906  -0.06494   0.88495
H     5.27518   1.92327   1.39061
H     2.86287   1.90749   0.79565
H     1.14818  -2.57991  -0.17854
H     0.17518  -2.04077  -3.07108
H    -1.24585  -3.85125   0.29530
H    -0.56842  -2.73757   1.49727
H    -2.28318  -2.62604   1.02796
H    -2.93807  -1.62422  -1.13685
H    -1.74615  -1.06215  -2.33543
H    -2.03191  -2.80344  -2.08560
