60
Generated by autodE on: 2022-10-23. E = -1773.782043 Ha
C     2.47268  -1.17736   3.63325
N     1.70476  -1.10952   2.40762
C     1.99522  -0.21380   1.45218
O     3.01973   0.46626   1.46337
C     1.02797  -0.26450   0.21610
C     1.81963  -1.15933  -0.75730
C     3.07177  -0.74907  -1.24303
C     3.81176  -1.57826  -2.08649
C     3.31895  -2.83600  -2.45033
C     2.08032  -3.25395  -1.96035
C     1.33572  -2.42302  -1.11654
O    -0.14238  -0.98379   0.59682
C    -1.33048  -0.24393   0.65694
C    -1.65040   0.13630   2.13051
O    -2.74310   0.06813   2.64709
O    -0.55303   0.53404   2.74119
C    -0.65800   0.98463   4.09794
C    -2.48904  -1.10601   0.13056
O    -3.62092  -0.68910   0.01835
O    -2.11955  -2.34169  -0.17101
C    -3.14166  -3.21094  -0.69071
C    -1.10502   1.10197  -0.15523
O    -1.52355   2.19048   0.63147
C    -2.90990   2.53274   0.60987
C    -1.67546   1.08721  -1.59579
C    -1.39799   2.45106  -2.27763
C     0.09918   2.35747  -2.66543
C     0.54745   1.05344  -1.98184
C    -0.67126   0.16532  -2.30275
C     0.48170   1.10957  -0.41177
C     1.15997   2.36801   0.15993
F     0.55983   3.51413  -0.21608
F     1.18253   2.40394   1.50069
F     2.42945   2.47004  -0.28499
H     3.54759  -1.22934   3.40919
H     2.18133  -2.07748   4.18916
H     2.29970  -0.29520   4.27330
H     0.77878  -1.52101   2.38430
H     3.46589   0.22698  -0.96353
H     4.77975  -1.23760  -2.46125
H     3.89972  -3.48551  -3.10944
H     1.68453  -4.23536  -2.23221
H     0.37240  -2.75801  -0.73730
H    -0.97462   0.15821   4.74969
H    -1.38099   1.80984   4.16565
H     0.34357   1.32980   4.37618
H    -2.64730  -4.16899  -0.88490
H    -3.94578  -3.33423   0.04798
H    -3.55345  -2.79466  -1.62064
H    -3.19156   3.03069  -0.33024
H    -3.55359   1.65546   0.75720
H    -3.05995   3.23482   1.44093
H    -2.72559   0.78589  -1.63113
H    -2.04528   2.55686  -3.15942
H    -1.59889   3.29935  -1.61413
H     0.68572   3.24181  -2.39925
H     0.21543   2.20762  -3.74871
H     1.51461   0.70148  -2.34364
H    -0.85321   0.09588  -3.38415
H    -0.62610  -0.85195  -1.90027
