24
Generated by autodE on: 2022-10-23. E = -724.636330 Ha
C     1.52689  -2.34391   0.08686
O     0.13978  -2.23223  -0.23837
C    -0.43569  -1.03517  -0.36927
C    -0.00905   0.25734  -0.28898
C     1.30202   0.84001   0.07941
F     1.69130   0.56360   1.35785
F     2.32921   0.42971  -0.70539
F     1.28028   2.18743  -0.00676
C    -1.27913   1.11468  -0.34647
C    -2.03773   0.89408   0.99846
C    -2.48545  -0.59262   0.89033
C    -1.94404  -1.01994  -0.51359
C    -2.14161   0.27987  -1.31144
H     2.14987  -1.92285  -0.71438
H     1.73200  -3.41663   0.18857
H     1.74566  -1.83497   1.03663
H    -1.10989   2.16492  -0.60960
H    -1.38593   1.08466   1.86274
H    -2.90357   1.56971   1.06973
H    -3.58099  -0.68739   0.90778
H    -2.07956  -1.22911   1.68957
H    -2.36609  -1.95214  -0.90849
H    -1.72547   0.23125  -2.32809
H    -3.19216   0.60566  -1.34987
