26
Generated by autodE on: 2022-06-24. E = -689.460841 Ha
C    -2.53104   2.03863   0.16249
O    -1.95160   0.97251   0.92205
C    -0.80117   0.43531   0.41933
C    -0.74066  -0.80942  -0.13303
O    -1.71954  -1.69025  -0.33805
C    -3.09057  -1.40734  -0.04024
C     0.58376  -1.36136  -0.58950
O     0.61903  -2.48377  -1.07488
C     1.80871  -0.53212  -0.45403
C     3.09947  -1.11549  -0.93977
C     1.73567   0.70739   0.09134
C     2.94272   1.57721   0.24744
C     0.42866   1.24054   0.58117
O     0.36465   2.33952   1.12959
H    -3.44028   2.34473   0.69674
H    -2.80107   1.69254  -0.84915
H    -1.84580   2.89570   0.08700
H    -3.64211  -2.30769  -0.33939
H    -3.23269  -1.22273   1.03227
H    -3.45068  -0.54686  -0.62211
H     3.83817  -1.16240  -0.12276
H     3.54102  -0.48261  -1.72724
H     2.95241  -2.12513  -1.34087
H     3.41986   1.75986  -0.72956
H     3.70004   1.08185   0.87774
H     2.68179   2.54029   0.70123
