24
Generated by autodE on: 2022-06-24. E = -518.113700 Ha
C     2.11610   0.98872   1.23311
C     2.10833   0.26137  -0.04560
N     1.06043  -0.19599  -0.64098
C     1.16995  -0.96234  -1.88734
C    -0.27770  -0.07957  -0.08401
C    -1.02089   1.10489  -0.36952
C    -0.34262   2.18157  -1.20616
O    -2.18233   1.31317   0.04499
C    -0.66091  -1.20693   0.70607
C    -2.04321  -1.24781   1.32209
O     0.12584  -2.16123   0.90608
H     1.12163   1.07291   1.68538
H     2.81132   0.47405   1.91769
H     2.54416   1.99121   1.05966
H     3.06627   0.09234  -0.55071
H     0.80679  -1.97988  -1.69014
H     2.21207  -0.99445  -2.22886
H     0.53231  -0.49277  -2.64809
H    -1.09685   2.92290  -1.50213
H     0.43605   2.69258  -0.61531
H     0.14300   1.77672  -2.10686
H    -2.82763  -1.13673   0.55945
H    -2.18227  -0.41860   2.03242
H    -2.15995  -2.20668   1.84654
