46
Generated by autodE on: 2022-06-18. E = -960.743054 Ha
C     0.92480  -3.39765   1.60970
O     0.59269  -2.01279   1.73292
C    -0.71962  -1.70722   1.68132
O    -1.61668  -2.55308   1.64017
N    -0.94333  -0.38254   1.70248
N    -2.29592   0.08930   1.72686
C    -2.29577   1.22746   0.80560
C    -2.37625   0.89028  -0.67933
C    -2.42565  -0.42485  -1.16031
C    -2.48169  -0.68015  -2.53536
C    -2.49625   0.37556  -3.44971
C    -2.45927   1.69303  -2.97848
C    -2.39969   1.94432  -1.60676
C    -0.97913   1.90975   1.20678
C     0.01472   0.73557   1.47132
C     0.85922   0.99827   2.71724
C     0.82729   0.45697   0.22623
C     2.16403   0.55295   0.10671
C     2.86735   0.30388  -1.14149
C     4.20385   0.36973  -1.35204
C     5.21393   0.72506  -0.29716
C     4.78494   0.07854  -2.70767
H     2.01963  -3.44753   1.64946
H     0.49295  -3.98119   2.43602
H     0.56701  -3.80317   0.65162
H    -2.88437  -0.68300   1.40984
H    -3.14714   1.87603   1.05914
H    -2.41149  -1.26936  -0.46918
H    -2.51253  -1.71337  -2.88977
H    -2.53896   0.17514  -4.52291
H    -2.47659   2.52808  -3.68326
H    -2.36783   2.97637  -1.24702
H    -1.13473   2.47114   2.13816
H    -0.59711   2.59830   0.44446
H     1.45385   1.91456   2.58835
H     1.54296   0.16345   2.92206
H     0.20039   1.13587   3.58646
H     0.23582   0.17548  -0.65069
H     2.76177   0.82654   0.97966
H     2.23229   0.03295  -1.99361
H     5.94790  -0.09183  -0.18032
H     5.79237   1.61392  -0.60532
H     4.77198   0.92965   0.68656
H     4.00993  -0.17242  -3.44685
H     5.35784   0.94545  -3.08309
H     5.50147  -0.76084  -2.65464
