23
Generated by autodE on: 2022-06-18. E = -351.521382 Ha
C     3.00581   0.10761  -2.29127
C     2.20230   0.47581  -1.26921
C     2.56198   1.62742  -0.36562
C     0.95654  -0.24782  -1.02328
C     0.06755   0.02034  -0.03396
C    -1.15575  -0.73002   0.16429
C    -2.09112  -0.52800   1.12656
C    -3.31737  -1.39318   1.20113
C    -2.00693   0.53978   2.18000
H     3.94331   0.63129  -2.49803
H     2.74190  -0.72925  -2.94531
H     3.51851   2.08127  -0.66078
H     1.78500   2.40950  -0.39039
H     2.64370   1.29877   0.68381
H     0.74053  -1.07581  -1.70923
H     0.27522   0.84441   0.65405
H    -1.33157  -1.54509  -0.54815
H    -3.33713  -2.15649   0.40939
H    -3.37806  -1.90282   2.17962
H    -4.23370  -0.78119   1.11951
H    -1.09734   1.15074   2.11692
H    -2.87944   1.21355   2.11232
H    -2.04814   0.08728   3.18652
