46
Generated by autodE on: 2022-06-18. E = -960.703582 Ha. Imaginary frequency = -499.7 cm-1
C     1.96118  -2.95817   1.71171
O     0.92918  -1.99338   1.91774
C     0.10000  -1.76200   0.86976
O     0.26019  -2.30971  -0.22795
N    -0.83591  -0.84895   1.20762
N    -1.64006  -0.54118   0.17102
C    -2.21912   0.68275   0.20325
C    -3.10857   1.08753  -0.90803
C    -2.86497   0.70231  -2.23895
C    -3.71577   1.12349  -3.26119
C    -4.81090   1.94722  -2.97429
C    -5.04963   2.34900  -1.65683
C    -4.20286   1.92293  -0.63099
C    -0.71490   1.98858   0.17503
C     0.39730   1.44721   0.85130
C     0.56625   1.65900   2.32874
C     1.43666   0.82350   0.07730
C     2.60858   0.32373   0.56716
C     3.58418  -0.34116  -0.25746
C     4.71134  -0.97429   0.16643
C     5.13126  -1.07830   1.60365
C     5.62410  -1.65355  -0.81253
H     2.55981  -2.96336   2.63080
H     1.53101  -3.95777   1.54309
H     2.59536  -2.68925   0.85555
H    -1.38177  -0.94793  -0.73584
H    -2.56056   0.96211   1.20266
H    -1.99968   0.08189  -2.48563
H    -3.51868   0.81435  -4.29029
H    -5.47211   2.27910  -3.77812
H    -5.89975   2.99497  -1.42545
H    -4.38971   2.23364   0.39986
H    -1.26718   2.79166   0.67133
H    -0.62468   2.09700  -0.90917
H    -0.38603   1.94777   2.79553
H     0.94106   0.75680   2.83208
H     1.29422   2.46829   2.51824
H     1.24317   0.72642  -0.99704
H     2.81086   0.40961   1.63720
H     3.36758  -0.35927  -1.33201
H     5.21472  -2.13983   1.89602
H     6.13640  -0.64237   1.74216
H     4.44258  -0.58633   2.30196
H     5.71356  -2.72983  -0.57919
H     5.27337  -1.54987  -1.84966
H     6.64702  -1.24139  -0.74485
