20
Generated by autodE on: 2022-05-29. E = -693.424315 Ha
C     2.68803  -2.13274   0.93785
N     1.61833  -1.23894   0.54526
C     1.88051  -0.12847  -0.14543
O     3.01203   0.22028  -0.50005
C     0.72613   0.77011  -0.52291
F     1.17074   1.83692  -1.19240
C    -0.61429   0.72899  -0.34448
F    -1.30538   1.76258  -0.86586
C    -1.48356  -0.27341   0.33545
O    -1.03976  -1.28526   0.90313
N    -2.79206   0.00311   0.28757
C    -3.76878  -0.87373   0.90512
H     3.42709  -1.61799   1.57288
H     2.25973  -2.97058   1.50137
H     3.22138  -2.53084   0.05951
H     0.63673  -1.43751   0.79308
H    -3.10556   0.84205  -0.18924
H    -3.58560  -0.96736   1.98670
H    -3.72834  -1.88182   0.46435
H    -4.76813  -0.45293   0.74606
