12
Generated by autodE on: 2022-05-29. E = -394.045777 Ha
C    -2.67695   0.30604   0.05954
O    -1.55545  -0.58273   0.09099
C    -0.34276  -0.01564   0.01181
O    -0.18645   1.20118  -0.08550
N     0.61845  -0.99746   0.05883
N     1.87054  -0.59108  -0.01087
N     2.42943   0.53243  -0.11829
H    -2.64881   0.99937   0.91331
H    -2.69105   0.88366  -0.87654
H    -3.56749  -0.33055   0.12200
H     2.51741  -1.39249   0.03376
H     1.67488   1.23887  -0.15269
