32
Generated by autodE on: 2022-05-29. E = -1087.440586 Ha. Imaginary frequency = -435.0 cm-1
C     2.51223  -1.08454   2.46754
N     1.96056  -1.00829   1.13031
C     2.13670   0.07999   0.37834
O     2.93564   0.98761   0.61479
C     1.30313   0.17757  -0.90031
F     2.10009   0.49816  -1.95875
N     0.93092  -1.56845  -1.36497
N    -0.26538  -1.57589  -1.90282
N    -1.28503  -1.11015  -1.24408
C    -1.41875  -1.45374   0.10084
O    -0.76364  -2.26163   0.73789
O    -2.46884  -0.79541   0.59552
C    -2.74486  -0.98617   1.98964
C     0.07836   0.88804  -0.89274
F    -0.26678   1.41516  -2.08635
C    -0.60383   1.40956   0.29912
O    -0.25910   1.04191   1.43348
N    -1.59168   2.29255   0.05847
C    -2.46187   2.78371   1.10665
H     2.37782  -2.10213   2.85460
H     3.58483  -0.84521   2.45647
H     2.00752  -0.37470   3.14546
H     1.20495  -1.64170   0.86740
H     1.61243  -1.77876  -2.10491
H    -0.36059  -1.49605  -2.92417
H    -1.87359  -0.69865   2.59282
H    -3.59517  -0.33378   2.21836
H    -3.00773  -2.03522   2.18763
H    -1.85190   2.46057  -0.90826
H    -2.78666   3.80639   0.87165
H    -1.91738   2.79154   2.05879
H    -3.35684   2.14886   1.22210
