63
Generated by autodE on: 2022-10-23. E = -1607.308101 Ha
C     3.91475   2.58697  -1.67679
N     2.81851   1.97366  -0.95200
C     2.82450   0.68271  -0.62450
O     3.76857  -0.07656  -0.89684
C     1.59115   0.16968   0.14098
C     1.97075  -0.42284   1.52760
O     1.10322  -0.47417   2.40587
N     3.21696  -0.86527   1.70615
C     3.60958  -1.55089   2.92235
O     0.71709   1.25923   0.31956
C    -0.64823   0.87170   0.43479
C    -1.02821   0.88467   1.94773
C    -0.38472   1.96829   2.77979
O    -1.94108   0.21945   2.39820
C    -1.52428   1.98306  -0.15635
C    -0.97153   3.00676  -0.93462
C    -1.78907   3.99275  -1.49442
C    -3.17022   3.96736  -1.28631
C    -3.72872   2.94822  -0.50848
C    -2.91249   1.96744   0.05761
C    -0.75981  -0.49922  -0.37309
C    -1.69081  -1.52612   0.25010
C    -1.30132  -2.38204   1.29368
C    -2.20396  -3.28575   1.85585
C    -3.52531  -3.34756   1.40256
C    -3.93372  -2.48780   0.38106
C    -3.02463  -1.59140  -0.18752
C    -1.16233  -0.20006  -1.87738
C    -1.22253  -1.52187  -2.62863
C     0.05054  -1.87612  -2.82784
C     0.86999  -0.76708  -2.19101
O     0.04438   0.38084  -2.38807
C     0.76269  -0.93263  -0.62786
O     1.04305  -2.22392  -0.17558
C     2.17233  -2.90977  -0.71251
H     3.70575   3.65685  -1.79266
H     4.86373   2.46219  -1.13328
H     4.03081   2.13506  -2.67426
H     2.01090   2.52309  -0.67792
H     3.84122  -0.84728   0.90022
H     3.09933  -2.52390   3.01555
H     4.69308  -1.71922   2.90158
H     3.35714  -0.94764   3.80649
H    -1.02518   2.86332   2.69761
H     0.62391   2.23375   2.45222
H    -0.38154   1.65096   3.83094
H     0.09812   3.02481  -1.12612
H    -1.33936   4.78262  -2.10068
H    -3.80819   4.73773  -1.72561
H    -4.80703   2.91637  -0.33616
H    -3.35916   1.18102   0.66559
H    -0.29369  -2.31936   1.69228
H    -1.87275  -3.93975   2.66649
H    -4.23085  -4.05399   1.84658
H    -4.96507  -2.50984   0.02082
H    -3.38074  -0.92292  -0.97133
H    -2.00721   0.47807  -2.00670
H    -2.13053  -2.06454  -2.88399
H     0.44921  -2.77991  -3.28585
H     1.88296  -0.60970  -2.57133
H     1.95192  -3.32974  -1.70686
H     2.38404  -3.73925  -0.02410
H     3.05438  -2.26085  -0.78359
