63
Generated by autodE on: 2022-10-23. E = -1607.226965 Ha. Imaginary frequency = -201.8 cm-1
C     3.72578   2.28058  -2.01595
N     2.72031   2.00945  -1.00818
C     2.95000   1.08195  -0.04595
O     4.08893   0.57897   0.10196
C     1.80647   0.68655   0.78117
C     1.86105  -0.30731   1.85250
O     0.83548  -0.64539   2.48448
N     3.04946  -0.89619   2.08865
C     3.15408  -2.05740   2.94440
O     0.71795   1.46247   0.59789
C    -0.55126   1.25197   0.88785
C    -0.95483   0.87037   2.29832
C    -0.27335   1.68181   3.37786
O    -1.95097   0.20750   2.53711
C    -1.48851   2.10375   0.15159
C    -1.02075   3.09626  -0.73770
C    -1.91563   3.84468  -1.49641
C    -3.29432   3.62021  -1.39179
C    -3.76948   2.65164  -0.50269
C    -2.88171   1.90579   0.27190
C    -0.62203  -0.82175  -0.57500
C    -1.68227  -1.58986   0.07009
C    -1.42958  -2.51374   1.10818
C    -2.47167  -3.22872   1.69526
C    -3.79208  -3.04688   1.26707
C    -4.05723  -2.14222   0.23478
C    -3.01785  -1.42436  -0.35864
C    -0.88090  -0.07483  -1.90979
C    -0.85783  -1.13994  -3.02682
C     0.42514  -1.50134  -3.13962
C     1.16547  -0.64026  -2.09164
O     0.39159   0.55950  -2.12427
C     0.71745  -1.20375  -0.72367
O     1.27959  -2.26542  -0.14864
C     2.59636  -2.64608  -0.57808
H     3.91564   1.40463  -2.66146
H     4.67710   2.56473  -1.54507
H     3.38305   3.11231  -2.64454
H     1.74905   2.14219  -1.27379
H     3.81295  -0.61234   1.46915
H     2.76385  -1.84472   3.95159
H     2.59142  -2.91701   2.54182
H     4.21085  -2.34014   3.02972
H    -0.88972   2.58492   3.53076
H    -0.26305   1.10333   4.31136
H     0.74306   2.00070   3.11843
H     0.04816   3.28660  -0.81929
H    -1.53553   4.61127  -2.17549
H    -3.99327   4.20437  -1.99457
H    -4.84299   2.47289  -0.40872
H    -3.25944   1.15064   0.95749
H    -0.41384  -2.64296   1.47408
H    -2.25195  -3.93212   2.50247
H    -4.60615  -3.60657   1.73359
H    -5.08230  -1.99197  -0.11304
H    -3.25102  -0.72196  -1.15916
H    -1.69776   0.64959  -1.93169
H    -1.73537  -1.52113  -3.54756
H     0.88927  -2.25869  -3.76984
H     2.23142  -0.45606  -2.24894
H     2.55612  -3.07061  -1.59264
H     3.27614  -1.78582  -0.55559
H     2.93971  -3.41183   0.12686
