41
Generated by autodE on: 2022-06-17. E = -770.190759 Ha
C     3.47912   1.57036   1.22326
N     2.59814   0.57996   0.63927
C     1.31341   0.84947   0.37597
O     0.82626   1.97082   0.57920
C     0.40835  -0.28612  -0.18801
C     1.15322  -1.50221  -0.77062
C     0.48003  -2.25814  -1.88082
O     2.22012  -1.89414  -0.31098
C    -0.47875  -0.87297   0.97007
C     0.22480  -1.05430   2.30597
C    -1.68198   0.07978   0.98213
C    -2.89012  -0.46781   1.73141
C    -1.91043   0.44204  -0.51096
C    -2.91896  -0.48492  -1.20907
C    -2.39800   1.89165  -0.62996
N    -0.57247   0.22681  -1.11155
C    -0.13341   1.03505  -2.22203
H     3.51278   2.48287   0.60795
H     3.14811   1.86079   2.23439
H     4.49109   1.15201   1.29117
H     2.90663  -0.38026   0.49046
H     0.98693  -3.22209  -2.01963
H    -0.58956  -2.40160  -1.67842
H     0.54955  -1.67413  -2.81238
H    -0.83274  -1.85887   0.62415
H     1.13352  -1.66587   2.20001
H     0.50793  -0.08629   2.74842
H    -0.44015  -1.56662   3.01752
H    -1.35415   1.00279   1.48465
H    -2.66092  -0.58688   2.80164
H    -3.74911   0.21740   1.65384
H    -3.20246  -1.45046   1.34566
H    -3.94774  -0.31336  -0.85663
H    -2.66849  -1.54380  -1.04540
H    -2.90105  -0.29708  -2.29441
H    -2.60788   2.16810  -1.67462
H    -3.33350   2.01398  -0.06206
H    -1.65573   2.59302  -0.22468
H    -0.88117   1.01830  -3.03146
H     0.79929   0.62359  -2.63967
H     0.06674   2.09451  -1.96832
