12
Generated by autodE on: 2022-06-17. E = -157.300304 Ha
C     1.95344   0.18012   0.09651
C     0.47908   0.44348   0.14969
C    -0.47909  -0.44351  -0.14959
C    -1.95344  -0.18009  -0.09658
H     2.45812   0.86978  -0.60335
H     2.42519   0.34364   1.08180
H     2.17264  -0.85141  -0.22130
H     0.17787   1.45348   0.46145
H    -0.17787  -1.45353  -0.46132
H    -2.17265   0.85120   0.22198
H    -2.45840  -0.87030   0.60252
H    -2.42489  -0.34276  -1.08217
