29
Generated by autodE on: 2022-07-27. E = -612.853301 Ha
C     3.11876   0.51625   2.17233
N     2.25206  -0.02449   1.15285
C     1.07826   0.56770   0.82589
O     0.71128   1.63693   1.37040
C     0.26552  -0.09728  -0.18749
C     0.59029  -1.29586  -0.85627
C    -0.32811  -1.83785  -1.93809
O     1.63924  -1.96493  -0.60782
N    -0.94473   0.61338  -0.50785
C    -0.78972   1.86374  -1.26943
C    -2.13097   0.16231  -0.20436
C    -2.31331  -1.04493   0.64029
C    -3.34987   0.86155  -0.70294
H     2.63094   0.54658   3.16260
H     3.43852   1.54516   1.93570
H     4.01523  -0.11280   2.25081
H     2.44033  -0.90956   0.67393
H    -0.92385  -2.67194  -1.53074
H     0.29941  -2.25033  -2.74202
H    -1.01772  -1.09763  -2.36475
H     0.24919   2.19158  -1.17977
H    -1.02009   1.67678  -2.32946
H    -1.45500   2.64538  -0.88291
H    -3.14931  -0.86686   1.33365
H    -1.40193  -1.31748   1.18474
H    -2.61133  -1.89219  -0.00121
H    -3.26650   1.10686  -1.77191
H    -4.24071   0.24458  -0.53662
H    -3.47929   1.81194  -0.15656
