41
Generated by autodE on: 2022-06-17. E = -770.100591 Ha. Imaginary frequency = -389.1 cm-1
C     3.73722   0.79350   1.20736
N     2.75189   0.12643   0.38764
C     1.56249   0.71140   0.10477
O     1.35583   1.90463   0.40760
C     0.53950  -0.12880  -0.56724
C     0.86574  -1.45720  -1.03158
C     0.25811  -1.98187  -2.31804
O     1.73703  -2.17551  -0.48355
C    -0.67980  -0.53219   1.73120
C     0.49228  -0.21171   2.59390
C    -1.71794   0.34882   1.40184
C    -3.12590   0.00081   1.85814
C    -1.85587   0.19404  -0.68937
C    -2.27427  -1.25395  -0.80533
C    -2.95869   1.13975  -1.10029
N    -0.57849   0.56588  -1.06662
C    -0.38794   1.87783  -1.69886
H     3.39403   0.93315   2.24835
H     3.98182   1.78716   0.80284
H     4.65446   0.18995   1.22578
H     2.78186  -0.88640   0.25662
H    -0.23958  -2.94801  -2.14594
H     1.10169  -2.17155  -3.00192
H    -0.43519  -1.28748  -2.80184
H    -0.91408  -1.60283   1.67005
H     0.76335   0.85085   2.55882
H     0.20662  -0.44838   3.63805
H     1.37145  -0.82864   2.36065
H    -1.47138   1.41396   1.50980
H    -3.90681   0.54482   1.30835
H    -3.22970   0.27538   2.92195
H    -3.32785  -1.07773   1.78732
H    -3.23288  -1.41051  -0.29868
H    -1.54340  -1.95982  -0.39998
H    -2.42862  -1.49197  -1.86990
H    -3.02460   1.18335  -2.20075
H    -3.92567   0.77348  -0.73712
H    -2.80323   2.16098  -0.72858
H     0.65889   1.98019  -1.99675
H    -1.00568   1.93472  -2.60695
H    -0.64684   2.71745  -1.03966
