23
Generated by autodE on: 2022-06-21. E = -351.519441 Ha
C     3.33636   0.05423  -1.78437
C     2.33277  -0.42253  -0.99257
C     2.44418  -1.75940  -0.30372
C     1.11703   0.36674  -0.79694
C     0.05586   0.00679  -0.03708
C    -1.12967   0.82170   0.12850
C    -2.20888   0.49498   0.88506
C    -3.38909   1.41580   0.99454
C    -2.29382  -0.79760   1.66324
H     4.25551  -0.51558  -1.94759
H     3.25205   1.02521  -2.28250
H     1.62389  -2.43165  -0.60562
H     2.37286  -1.64925   0.79123
H     3.39852  -2.25084  -0.53987
H     1.08154   1.33001  -1.31981
H     0.08205  -0.95262   0.48760
H    -1.14191   1.77798  -0.40772
H    -3.26651   2.32511   0.38771
H    -3.55341   1.71611   2.04551
H    -4.31581   0.90411   0.67778
H    -3.24963  -0.87566   2.20130
H    -2.20917  -1.67716   1.00365
H    -1.48455  -0.87923   2.40795
