26
Generated by autodE on: 2022-06-21. E = -669.357308 Ha
C     4.01882   1.36488  -1.24882
C     2.63865   1.81833  -0.87906
O     2.11522   2.86365  -1.24528
C     1.91666   0.95988   0.04580
N     1.08279   0.11174   0.12300
C     0.12797  -0.76534   0.27727
C     0.55508  -2.17895   0.34834
C     2.03943  -2.44980   0.27700
O    -0.25465  -3.09729   0.45226
C    -1.26002  -0.26090   0.32024
C    -1.53209   1.06403  -0.08573
C    -2.82823   1.57402  -0.03683
C    -3.88586   0.77611   0.41315
C    -3.62805  -0.53681   0.81675
C    -2.33235  -1.05554   0.77375
H     4.35379   1.91521  -2.13854
H     4.04326   0.27887  -1.42857
H     4.70143   1.58128  -0.40969
H     2.57454  -1.91968   1.08106
H     2.20871  -3.52962   0.37094
H     2.45564  -2.09416  -0.67908
H    -0.72334   1.70095  -0.45010
H    -3.01347   2.60154  -0.35869
H    -4.90215   1.17518   0.44736
H    -4.44415  -1.16928   1.17456
H    -2.14464  -2.07742   1.09287
