38
Generated by autodE on: 2022-06-17. E = -951.382707 Ha
C     4.14650   2.13486   0.52428
N     2.78290   1.68081   0.70503
C     2.41922   0.39694   0.75786
O     3.21434  -0.55239   0.65379
C     0.93235   0.13539   0.99629
N     0.14114   1.36664   0.97435
C    -1.00133   1.12218   0.45577
C    -2.05911   2.18686   0.37103
C    -1.60436   3.61223   0.29339
O    -3.23493   1.86030   0.37469
C    -1.22772  -0.33573   0.08438
N    -2.08907  -0.62376  -1.04969
C    -3.39418  -1.17747  -0.71370
C    -1.50505  -1.06886  -2.22535
C    -0.18225  -1.07280  -2.47771
C     0.79486  -0.60960  -1.44280
C     0.24115  -0.83487  -0.01165
C     0.31489  -2.32032   0.35935
N     1.53028  -2.78057   0.68406
O    -0.69271  -3.03817   0.33164
H     4.24037   2.73061  -0.39672
H     4.46616   2.75677   1.37448
H     4.80746   1.26343   0.45224
H     2.03565   2.36300   0.80761
H     0.86979  -0.28666   2.01581
H    -1.00133   3.75438  -0.61870
H    -0.95155   3.84944   1.14688
H    -2.47354   4.28186   0.27844
H    -1.67769  -0.80440   0.97593
H    -4.01784  -1.22197  -1.61797
H    -3.89698  -0.52945   0.01488
H    -3.31555  -2.19730  -0.29278
H    -2.22360  -1.41836  -2.97167
H     0.17614  -1.40453  -3.45358
H     1.76058  -1.12322  -1.54467
H     1.01264   0.46835  -1.55816
H     2.33114  -2.13814   0.71633
H     1.63419  -3.76323   0.91763
