20
Generated by autodE on: 2022-06-17. E = -457.715332 Ha
C    -3.08755  -0.60515   0.43667
N    -1.80502   0.06637   0.30289
C    -1.76542   1.46052   0.17439
C    -0.62799   2.13509  -0.05616
C     0.71472   1.46252  -0.20214
C     0.56995  -0.04519  -0.07521
C     1.73433  -0.93800  -0.19144
N     2.92868  -0.33503  -0.41737
O     1.66155  -2.17999  -0.09334
C    -0.64087  -0.62671   0.15551
H    -3.67272  -0.15826   1.25486
H    -3.68044  -0.53578  -0.49136
H    -2.92042  -1.66505   0.66652
H    -2.73053   1.95928   0.28067
H    -0.67652   3.22352  -0.13569
H     1.17288   1.73625  -1.17463
H     1.42226   1.85737   0.55581
H     3.03120   0.66851  -0.49817
H     3.75592  -0.91518  -0.50372
H    -0.71738  -1.71193   0.23886
