18
Generated by autodE on: 2022-06-17. E = -493.591327 Ha
C     3.87926   1.26448  -0.29743
N     3.00747   0.18862   0.12781
C     1.68452   0.20391  -0.13367
O     1.12519   1.13063  -0.73926
C     0.93795  -0.97211   0.36402
N    -0.32287  -1.01974   0.12244
C    -1.46408  -0.93253  -0.25087
C    -2.71501  -0.35661   0.20917
C    -2.93471   1.05815  -0.26053
O    -3.52897  -1.00857   0.85136
H     3.94240   1.32598  -1.39655
H     4.88476   1.08657   0.10256
H     3.51641   2.23569   0.07355
H     3.40617  -0.61491   0.60250
H     1.41130  -1.78462   0.92041
H    -3.54281   1.59003   0.48547
H    -3.49313   1.03254  -1.21161
H    -1.98167   1.57939  -0.43261
