38
Generated by autodE on: 2022-06-17. E = -951.294047 Ha. Imaginary frequency = -430.6 cm-1
C     2.96263   2.23051  -1.36259
N     2.01558   1.81290  -0.35102
C     2.21005   0.70478   0.39603
O     3.27560   0.06961   0.41125
C     1.06246   0.23693   1.21102
N    -0.05245   0.95159   1.27702
C    -1.16941   0.94026   0.76567
C    -2.36836   1.76039   0.97522
C    -3.21250   1.32363   2.13898
O    -2.66745   2.66675   0.20783
C    -1.06474  -0.84981  -0.62262
N    -0.99632  -0.34899  -1.91237
C    -2.04595   0.54911  -2.36194
C     0.25126  -0.28448  -2.53998
C     1.30777  -1.00153  -2.12535
C     1.20283  -1.92967  -0.94421
C     0.04141  -1.51736  -0.05455
C    -0.24747  -2.26453   1.18848
N     0.65935  -3.19857   1.56094
O    -1.26537  -2.05419   1.87650
H     2.81443   3.29523  -1.58615
H     2.84190   1.65317  -2.29596
H     3.98741   2.08322  -0.99726
H     1.07460   2.19048  -0.40109
H     1.31967  -0.39414   2.06459
H    -2.71124   1.63703   3.07110
H    -3.28953   0.22569   2.16890
H    -4.20707   1.78609   2.07834
H    -2.06648  -1.06602  -0.25690
H    -2.08807   0.55768  -3.45977
H    -1.87931   1.57934  -2.00187
H    -3.01648   0.20496  -1.97907
H     0.29707   0.37813  -3.40648
H     2.25259  -0.92365  -2.66554
H     2.15040  -1.92389  -0.38274
H     1.06405  -2.97844  -1.28536
H     1.51609  -3.35627   1.04568
H     0.52482  -3.68253   2.44207
