20
Generated by autodE on: 2022-10-21. E = -461.427434 Ha
C     2.77434  -0.55010   0.83148
O     1.59689  -1.19270   0.35538
C     0.57200  -0.41523  -0.04768
C     0.31873   0.90546  -0.12730
C     1.01880   2.17183   0.23686
C    -1.16708   0.92712  -0.58966
C    -2.03784   0.41612   0.58093
C    -1.76075  -0.88916   0.66662
C    -0.73141  -1.13706  -0.46016
O    -1.21045  -0.22433  -1.46052
H     3.47919  -1.34647   1.10368
H     3.22327   0.08199   0.04812
H     2.55703   0.06514   1.71952
H     2.05807   2.02108   0.55234
H     1.02081   2.87870  -0.61152
H     0.48754   2.68116   1.06232
H    -1.49497   1.84185  -1.09825
H    -2.67378   1.03615   1.21257
H    -2.10196  -1.63337   1.38553
H    -0.61576  -2.16096  -0.83367
