37
Generated by autodE on: 2022-10-21. E = -971.053153 Ha. Imaginary frequency = -168.3 cm-1
C     4.42483  -2.65804   0.53627
N     3.13343  -2.05207   0.27912
C     2.96461  -0.71332   0.34534
O     3.86779   0.06747   0.65773
N     1.69138  -0.18217   0.05045
N     0.75192  -0.99872  -0.12495
C    -0.38813  -1.33861  -0.22717
C    -1.25491  -2.37394  -0.78773
C    -0.61399  -3.73904  -0.80040
O    -2.38097  -2.14847  -1.19516
C    -1.91556   0.67688   0.33575
C    -2.86463   0.00807   1.27133
C    -2.24516   1.09793  -1.11556
C    -2.78121   2.55089  -1.07866
C    -1.72161   3.30546  -0.77047
C    -0.55168   2.29725  -0.63267
O    -0.91571   1.33512  -1.63059
C    -0.86538   1.48406   0.64364
O    -0.36129   1.69881   1.86221
C     0.88301   2.39284   1.97207
H     4.30959  -3.74900   0.53207
H     5.16892  -2.38006  -0.22877
H     4.81552  -2.34862   1.51749
H     2.37448  -2.64050  -0.04941
H    -1.33852  -4.47343  -1.17559
H    -0.28064  -4.01085   0.21322
H     0.27736  -3.71963  -1.44834
H    -3.73920   0.65922   1.46148
H    -2.38320  -0.19436   2.23971
H    -3.24781  -0.93957   0.86641
H    -2.79522   0.37163  -1.72112
H    -3.82080   2.84161  -1.22754
H    -1.65088   4.37678  -0.58626
H     0.46592   2.67450  -0.76652
H     1.10174   2.46395   3.04493
H     0.81107   3.40674   1.54920
H     1.68103   1.82774   1.46308
