72
Generated by autodE on: 2022-10-24. E = -1596.856550 Ha
C    -0.88944 -21.10070  13.98161
O    -2.18434 -21.06575  13.36709
C    -2.21285 -20.96652  12.03561
O    -1.21223 -21.00741  11.34460
C    -3.63309 -20.87543  11.48877
N    -3.95116 -22.10909  10.77102
C    -4.76532 -21.74191   9.60080
C    -6.25555 -21.89603   9.90055
C    -6.99298 -22.90519   9.26980
C    -8.33943 -23.11727   9.58391
C    -8.96775 -22.32319  10.54621
C    -8.23685 -21.32062  11.19453
C    -6.89467 -21.11096  10.87477
C    -4.30286 -20.30951   9.30684
C    -3.74708 -19.79243  10.42057
C    -3.22669 -18.39680  10.77900
O    -4.18921 -17.37836  10.61139
C    -5.43493 -17.56012  11.26769
O    -2.92934 -18.52848  12.17119
C    -2.41609 -17.40791  12.86877
C    -1.96031 -17.97625  10.00069
C    -2.15730 -17.10519   8.76389
C    -2.74677 -17.78577   7.53214
C    -4.20186 -18.28261   7.62986
C    -4.45672 -19.80961   7.87018
C    -5.92033 -20.09648   7.45550
C    -6.94569 -19.31320   8.01123
C    -8.28688 -19.56131   7.71715
C    -8.63667 -20.59972   6.84770
C    -7.62863 -21.38717   6.29006
C    -6.28669 -21.14223   6.59830
C    -3.45256 -20.56965   6.97486
C    -2.40519 -21.34056   7.49754
C    -1.45550 -21.93372   6.65682
C    -1.52927 -21.76106   5.27412
C    -2.56122 -20.98127   4.73945
C    -3.50576 -20.39292   5.58065
H    -1.06605 -21.19488  15.05942
H    -0.30579 -21.95748  13.61549
H    -0.34585 -20.16840  13.76664
H    -4.30207 -20.67481  12.34192
H    -4.45775 -22.75130  11.37657
H    -4.53747 -22.40433   8.75213
H    -6.50704 -23.52538   8.51321
H    -8.89854 -23.90347   9.07057
H   -10.02056 -22.48317  10.79104
H    -8.71725 -20.69358  11.94971
H    -6.34444 -20.31789  11.38025
H    -5.97918 -16.61013  11.17739
H    -5.30325 -17.79828  12.33496
H    -6.02827 -18.35609  10.79479
H    -2.89329 -16.47134  12.54025
H    -2.64540 -17.56800  13.93208
H    -1.32271 -17.31486  12.75872
H    -1.40184 -18.88885   9.74766
H    -1.32769 -17.41292  10.69960
H    -1.16280 -16.71774   8.48532
H    -2.76072 -16.22504   9.03447
H    -2.70390 -17.05737   6.70613
H    -2.08013 -18.60687   7.22980
H    -4.74194 -17.70494   8.38803
H    -4.69316 -18.06377   6.67176
H    -6.69695 -18.50994   8.70537
H    -9.06293 -18.94368   8.17565
H    -9.68601 -20.79736   6.61658
H    -7.88385 -22.21340   5.62197
H    -5.52450 -21.79484   6.17518
H    -2.30522 -21.47052   8.57507
H    -0.65041 -22.52940   7.09414
H    -0.78782 -22.22240   4.61749
H    -2.62886 -20.82599   3.65980
H    -4.29485 -19.77857   5.14381
