24
Generated by autodE on: 2022-10-24. E = -593.149008 Ha
C    -4.76505   1.97497   0.86776
O    -3.95047   1.24768  -0.04933
C    -2.66167   1.02270   0.33411
O    -2.22141   1.42748   1.42038
C    -1.91998   0.29521  -0.63252
N    -0.62199   0.02988  -0.32887
C     0.30116  -0.61163  -1.01338
C     1.65732  -0.81364  -0.55611
C     2.14997  -0.33434   0.68039
C     3.47026  -0.56960   1.05532
C     4.33425  -1.28368   0.21442
C     3.86084  -1.76225  -1.01232
C     2.54067  -1.53142  -1.39441
H    -4.35430   2.97892   1.05743
H    -5.75249   2.06332   0.39724
H    -4.85851   1.44317   1.82750
H    -2.32710  -0.04920  -1.58028
H    -0.35869   0.40806   0.59063
H     0.00018  -1.00732  -1.98569
H     1.50221   0.22745   1.35815
H     3.83117  -0.19151   2.01473
H     5.36870  -1.46431   0.51487
H     4.52580  -2.31985  -1.67617
H     2.17414  -1.90689  -2.35289
