24
Generated by autodE on: 2022-10-26. E = -593.145816 Ha
C     4.16002   1.31386   2.61196
O     2.75878   1.56851   2.58286
C     2.04471   0.91433   1.61266
O     2.60209   0.14613   0.81564
C     0.66709   1.23689   1.66799
N    -0.25014   0.70889   0.80213
C    -0.12735  -0.13312  -0.20685
C    -1.23758  -0.58674  -1.01566
C    -0.94826  -1.45082  -2.09654
C    -1.96245  -1.92659  -2.92543
C    -3.29189  -1.55469  -2.69695
C    -3.59482  -0.70232  -1.62706
C    -2.58630  -0.22332  -0.79429
H     4.56384   1.91293   3.43821
H     4.37075   0.24775   2.79176
H     4.64243   1.61388   1.66826
H     0.27418   1.92486   2.41114
H    -1.19807   1.04415   0.98805
H     0.87809  -0.48784  -0.42261
H     0.08941  -1.74143  -2.27753
H    -1.71456  -2.59180  -3.75596
H    -4.08810  -1.92657  -3.34565
H    -4.63047  -0.40949  -1.43890
H    -2.86159   0.43445   0.03404
