72
Generated by autodE on: 2022-10-24. E = -1596.768530 Ha. Imaginary frequency = -280.7 cm-1
C    -0.80468 -20.97462  13.59309
O    -2.20365 -20.70942  13.49185
C    -2.80931 -21.08953  12.34337
O    -2.25493 -21.83773  11.54011
C    -4.14088 -20.52270  12.23507
N    -5.13003 -21.17518  11.56414
C    -4.97940 -21.79106  10.38559
C    -6.09022 -22.44724   9.70708
C    -5.79133 -23.35510   8.67049
C    -6.80728 -24.02843   7.99380
C    -8.14511 -23.81247   8.33918
C    -8.45490 -22.91363   9.36709
C    -7.44289 -22.23688  10.04388
C    -4.14001 -19.72105   9.40348
C    -3.62804 -19.16160  10.39137
C    -2.92173 -17.94079  10.88684
O    -3.82311 -16.84858  10.98462
C    -4.93190 -17.03406  11.85200
O    -2.37850 -18.24936  12.15714
C    -1.65963 -17.24339  12.84909
C    -1.80230 -17.50565   9.92519
C    -2.17946 -16.94273   8.55225
C    -2.64484 -17.91183   7.45379
C    -4.14456 -18.25215   7.42475
C    -4.54020 -19.66912   7.96947
C    -6.08397 -19.75540   7.88582
C    -6.83322 -18.90384   8.71763
C    -8.22758 -18.88021   8.66640
C    -8.91259 -19.71308   7.77565
C    -8.18209 -20.57445   6.95636
C    -6.78401 -20.59717   7.01355
C    -3.79792 -20.72259   7.13628
C    -2.84810 -21.57869   7.71058
C    -2.14186 -22.50434   6.93500
C    -2.36209 -22.58358   5.55870
C    -3.27895 -21.71002   4.96453
C    -3.97874 -20.78604   5.74309
H    -0.48524 -20.56749  14.56019
H    -0.59881 -22.05464  13.55631
H    -0.25762 -20.47433  12.77886
H    -4.48082 -19.91486  13.07026
H    -6.07265 -20.87632  11.81082
H    -3.98084 -22.15362  10.17283
H    -4.74783 -23.52369   8.39835
H    -6.55325 -24.72588   7.19206
H    -8.94338 -24.33724   7.80949
H    -9.49750 -22.73154   9.63736
H    -7.71808 -21.53161  10.83141
H    -5.52929 -16.11322  11.80245
H    -4.61286 -17.19922  12.89407
H    -5.55761 -17.88422  11.53449
H    -2.14842 -16.25940  12.76695
H    -1.64510 -17.54325  13.90715
H    -0.61742 -17.15677  12.49815
H    -1.12465 -18.36696   9.81454
H    -1.23629 -16.72023  10.44777
H    -1.27025 -16.44224   8.18023
H    -2.92615 -16.14192   8.68102
H    -2.39608 -17.44476   6.48780
H    -2.04126 -18.83340   7.49626
H    -4.70425 -17.50375   8.00402
H    -4.52528 -18.18762   6.39436
H    -6.31561 -18.25048   9.42171
H    -8.78043 -18.20746   9.32691
H   -10.00423 -19.69969   7.73237
H    -8.69886 -21.25127   6.27208
H    -6.24981 -21.30098   6.37954
H    -2.64179 -21.51403   8.77783
H    -1.41172 -23.16117   7.41417
H    -1.81451 -23.30751   4.95056
H    -3.44765 -21.74236   3.88535
H    -4.67216 -20.10252   5.25177
