61
Generated by autodE on: 2022-06-13. E = -3918.259326 Ha
C     2.73857  -0.61633   3.95933
N     2.45646  -0.37963   2.55737
C     1.38637  -0.86802   1.93016
O     0.56914  -1.57644   2.49895
C     1.17808  -0.33463   0.47036
C     2.51494   0.00137  -0.18156
C     3.50624  -0.98821  -0.28953
C     4.71820  -0.71177  -0.92205
C     4.96360   0.56203  -1.44679
C     3.98828   1.55391  -1.32849
C     2.77030   1.27569  -0.69904
O     0.42437   0.85909   0.62438
C    -1.00134   0.66460   0.59103
C    -1.53568   0.62118   2.03579
C    -1.62727   1.91943  -0.02672
C    -3.01903   1.98846  -0.20748
C    -3.61917   3.14809  -0.70004
C    -2.84096   4.26961  -1.00769
C    -1.45953   4.21605  -0.81327
C    -0.85832   3.05102  -0.32339
C    -1.20840  -0.67730  -0.27394
C    -2.31533  -1.52156   0.38117
O    -3.48161  -1.41429  -0.03117
N    -1.98078  -2.29277   1.41881
C    -2.95387  -3.00058   2.22162
C    -1.57588  -0.35939  -1.75368
C    -1.70743  -1.67178  -2.56217
C    -0.23509  -2.07401  -2.82401
C     0.55104  -1.05239  -1.97999
C    -0.25702   0.21494  -2.29543
C     0.28126  -1.24429  -0.45236
Br    0.66419  -3.17109  -0.05994
H     3.79994  -0.87081   4.09089
H     2.12101  -1.44905   4.31544
H     2.51412   0.27542   4.56703
H     3.09056   0.21563   2.03352
H     3.32861  -1.98418   0.11803
H     5.47589  -1.49459  -1.00238
H     5.91375   0.77946  -1.94021
H     4.17067   2.55404  -1.72836
H     2.01295   2.05228  -0.61657
H    -2.62887   0.52202   2.04508
H    -1.27806   1.57812   2.51248
H    -1.10007  -0.18756   2.62470
H    -3.63599   1.11805   0.02125
H    -4.70200   3.17483  -0.84404
H    -3.31035   5.17819  -1.39220
H    -0.83869   5.08593  -1.04131
H     0.21884   3.02614  -0.16922
H    -1.02320  -2.22057   1.77816
H    -3.88027  -3.13122   1.64927
H    -3.19051  -2.44588   3.14645
H    -2.56291  -3.98978   2.50250
H    -2.45448   0.28122  -1.83715
H    -2.26757  -2.44248  -2.01710
H    -2.24964  -1.47967  -3.49951
H    -0.01375  -3.11669  -2.57442
H     0.03921  -1.91983  -3.87791
H     1.62000  -1.03092  -2.20999
H     0.09306   1.11701  -1.78848
H    -0.29637   0.41392  -3.37629
