37
Generated by autodE on: 2022-06-13. E = -863.613858 Ha
C    -2.10581   3.25104  -1.93618
N    -1.38944   2.25918  -1.16583
C    -2.03148   1.18300  -0.62835
O    -3.27407   1.07629  -0.72221
C    -1.20367   0.19759   0.05675
O     0.12447   0.43069  -0.12750
C     1.16648   0.10446   0.58994
C     0.98373  -0.49430   1.92570
C     2.43625   0.45980  -0.00895
C     3.65649   0.20710   0.66066
C     4.87143   0.56281   0.07909
C     4.90376   1.17633  -1.17804
C     3.70306   1.42521  -1.85697
C     2.48532   1.06553  -1.29034
C    -1.70445  -1.06794   0.56464
C    -0.98333  -2.27291   0.37683
C    -1.50155  -3.49660   0.80264
C    -2.74981  -3.56143   1.42910
C    -3.47723  -2.37924   1.62034
C    -2.96777  -1.15318   1.19976
H    -2.60676   2.80871  -2.81386
H    -2.88014   3.75333  -1.33299
H    -1.39406   4.00864  -2.28783
H    -0.38357   2.33270  -1.07509
H     0.78357  -1.58085   1.88222
H     0.09701  -0.03967   2.40047
H     1.86584  -0.33070   2.55445
H     3.65560  -0.27018   1.64076
H     5.80244   0.35868   0.61272
H     5.85858   1.45266  -1.63075
H     3.72029   1.89605  -2.84257
H     1.55753   1.24483  -1.83438
H    -0.02317  -2.25558  -0.14258
H    -0.92395  -4.40920   0.63509
H    -3.15110  -4.51972   1.76644
H    -4.45177  -2.41258   2.11437
H    -3.54060  -0.24188   1.36455
