24
Generated by autodE on: 2022-06-13. E = -3054.571199 Ha
C     3.99276   1.10269  -0.67593
N     2.55433   1.20163  -0.81101
C     1.74787   0.14188  -0.56006
O     2.20838  -0.95925  -0.23249
C     0.29716   0.39854  -0.71364
C    -0.73590  -0.22882  -0.10781
Br   -0.70931  -1.61462   1.16941
C    -2.01996   0.51180  -0.42171
C    -1.92989   1.85946   0.36725
C    -0.76975   2.60550  -0.35030
C    -0.33302   1.58575  -1.45049
C    -1.69610   0.98892  -1.85170
H     4.39793   0.30947  -1.32389
H     4.44473   2.05942  -0.96490
H     4.28929   0.87043   0.36053
H     2.14539   2.10316  -1.02788
H    -2.94336  -0.05636  -0.26107
H    -2.88044   2.40480   0.27446
H    -1.74112   1.68934   1.43664
H     0.06341   2.85675   0.32110
H    -1.12010   3.53716  -0.81856
H     0.28059   2.01162  -2.25441
H    -2.40599   1.74230  -2.22527
H    -1.61035   0.16250  -2.57185
