51
Generated by autodE on: 2022-06-04. E = -1528.403370 Ha
C     3.33413  -2.50467  -1.90029
N     2.32840  -1.57006  -1.43321
C     2.65172  -0.41595  -0.84903
O     3.79706   0.01630  -0.71319
C     1.45752   0.41569  -0.31139
C     1.67002   1.82603  -0.91812
O     1.18257   2.11035  -1.99010
O     2.48542   2.60029  -0.23073
C     2.76130   3.89663  -0.79119
O     0.25416  -0.12208  -0.81377
C    -0.84337   0.14313   0.06302
C    -1.25693   1.61344  -0.22951
O    -0.64382   2.53651   0.31798
N    -2.19637   1.79848  -1.15700
C    -2.51084   3.12296  -1.66205
C    -1.94814  -0.85872  -0.18504
C    -3.13871  -0.75484   0.55227
C    -4.16340  -1.68247   0.36682
C    -4.01261  -2.71885  -0.56170
C    -2.83356  -2.81819  -1.30308
C    -1.80214  -1.89168  -1.11679
C    -0.20660   0.04260   1.49152
C    -0.80948   0.93513   2.46879
N    -1.32041   1.56093   3.30155
C    -0.14222  -1.43952   2.07403
C     0.42965  -1.31752   3.47714
C     1.72986  -1.05098   3.30550
C     1.94169  -1.04359   1.80364
O     0.95679  -1.96838   1.33475
C     1.33422   0.29124   1.24928
F     1.82678   1.36430   1.93313
H     4.15858  -1.95842  -2.37754
H     3.74733  -3.10017  -1.06910
H     2.88121  -3.18540  -2.63192
H     1.35669  -1.86067  -1.38175
H     3.43870   4.38932  -0.08512
H     1.82697   4.46685  -0.88994
H     3.23976   3.79190  -1.77502
H    -2.64201   0.98620  -1.57295
H    -1.64954   3.55188  -2.19866
H    -3.36156   3.04792  -2.34934
H    -2.77382   3.80010  -0.83624
H    -3.26489   0.05314   1.27705
H    -5.08373  -1.59516   0.94838
H    -4.81590  -3.44462  -0.70754
H    -2.71054  -3.62094  -2.03356
H    -0.88709  -1.97116  -1.70203
H    -1.05499  -2.02229   1.93144
H    -0.15338  -1.35053   4.39625
H     2.49090  -0.81568   4.04783
H     2.94451  -1.27868   1.43687
