37
Generated by autodE on: 2022-07-27. E = -1029.216281 Ha
C    -2.70245   3.21613   0.24747
N    -2.23333   1.86765   0.50800
C    -1.35073   1.27475  -0.30297
O    -0.96261   1.74158  -1.37624
C    -0.87581  -0.10597   0.08211
O     0.36393  -0.41820  -0.08550
C     1.50407   0.29101  -0.30175
C     2.60627  -0.55428  -0.77300
O     3.76320  -0.12979  -0.93982
N     2.29410  -1.85138  -1.03656
C     3.30150  -2.78212  -1.49700
C     1.59311   1.61999   0.24287
O     0.72257   2.12097   0.95723
O     2.72905   2.27595  -0.06138
C     2.89091   3.56707   0.53413
C    -1.75122  -1.21429   0.40328
C    -3.15659  -1.10948   0.28140
C    -3.96824  -2.20207   0.57591
C    -3.40261  -3.41088   0.99492
C    -2.01121  -3.52684   1.11838
C    -1.19032  -2.44363   0.83004
H    -1.87778   3.94242   0.33601
H    -3.11998   3.28965  -0.76698
H    -3.48285   3.46760   0.97536
H    -2.43674   1.43498   1.40422
H     1.34012  -2.17136  -0.92149
H     4.12645  -2.88117  -0.77262
H     2.83660  -3.76649  -1.63341
H     3.73988  -2.46535  -2.45792
H     3.85695   3.94330   0.17665
H     2.89858   3.49676   1.63211
H     2.08335   4.24599   0.22207
H    -3.61189  -0.18256  -0.06427
H    -5.05117  -2.11100   0.47053
H    -4.04443  -4.26341   1.22765
H    -1.56786  -4.46785   1.45060
H    -0.10910  -2.52980   0.94229
