14
Generated by autodE on: 2022-06-04. E = -499.075719 Ha
N     2.75398  -1.28662  -1.25550
C     1.81780  -0.82880  -0.73155
C     0.68756  -0.29979  -0.08748
C     0.16886   0.94104  -0.12447
F     0.58647   2.00162  -0.77394
C    -1.13506   0.91014   0.68960
C    -2.13772   0.06115  -0.12402
C    -1.65508  -1.18293  -0.06462
C    -0.36353  -1.07481   0.77347
O    -0.73393  -0.03398   1.69466
H    -1.47170   1.86718   1.10082
H    -3.00188   0.45715  -0.65487
H    -2.02039  -2.09622  -0.53192
H     0.00564  -1.97291   1.27720
