51
Generated by autodE on: 2022-06-04. E = -1528.296917 Ha. Imaginary frequency = -242.4 cm-1
C     3.25972  -2.33319  -2.28609
N     2.28841  -1.31604  -1.93727
C     2.63470  -0.25039  -1.18477
O     3.80964  -0.03415  -0.85453
C     1.52117   0.62770  -0.73623
C     1.64931   2.07652  -0.54946
O     0.75726   2.78404  -0.10453
O     2.86463   2.54662  -0.84114
C     3.10902   3.92076  -0.51078
O     0.31509   0.04979  -0.91263
C    -0.91389   0.36760  -0.61491
C    -1.39825   1.77265  -0.93812
O    -1.15372   2.16561  -2.08102
N    -2.15892   2.42551  -0.05664
C    -2.58454   3.78834  -0.32095
C    -1.85138  -0.74475  -0.58520
C    -3.24003  -0.52099  -0.44508
C    -4.12481  -1.59540  -0.39623
C    -3.64984  -2.90699  -0.49510
C    -2.27603  -3.14094  -0.63992
C    -1.38285  -2.07680  -0.67991
C     0.21538   0.19781   1.92008
C    -0.64059   1.16189   2.46286
N    -1.39517   1.93940   2.90330
C     0.08279  -1.33471   2.15839
C     0.78003  -1.61729   3.50352
C     2.08456  -1.44177   3.26670
C     2.16994  -1.06816   1.77211
O     1.07461  -1.81667   1.23597
C     1.56430   0.34048   1.64288
F     2.29678   1.41180   1.93830
H     4.12794  -1.88931  -2.79588
H     3.62673  -2.86652  -1.39318
H     2.78598  -3.05800  -2.95932
H     1.31072  -1.47179  -2.15400
H     4.15447   4.11099  -0.77944
H     2.95552   4.08855   0.56519
H     2.44245   4.58190  -1.08300
H    -2.18287   2.09721   0.90736
H    -1.71811   4.46734  -0.38584
H    -3.13936   3.84386  -1.26843
H    -3.23784   4.11879   0.49576
H    -3.62694   0.49390  -0.37335
H    -5.19436  -1.40592  -0.28474
H    -4.34737  -3.74670  -0.45848
H    -1.89966  -4.16327  -0.71496
H    -0.31525  -2.26552  -0.76290
H    -0.90152  -1.77648   1.98088
H     0.26529  -1.84877   4.43510
H     2.93412  -1.49032   3.94619
H     3.11316  -1.24311   1.24809
