26
Generated by autodE on: 2022-06-20. E = -665.521857 Ha
C     3.78035   0.42049  -2.18449
C     2.59674   0.38987  -1.25214
O     2.25121   1.40906  -0.63371
N     2.01792  -0.84328  -1.15240
N     0.94208  -0.95057  -0.35408
C     0.97256  -2.15143   0.49502
C    -0.08504  -0.11243  -0.34357
C    -0.20482   0.81909  -1.42078
N    -0.40893   1.55734  -2.29592
C    -1.16447  -0.11629   0.65821
C    -2.49684   0.06439   0.23883
C    -3.52808   0.08840   1.17567
C    -3.24197  -0.04659   2.53844
C    -1.91806  -0.20088   2.96322
C    -0.88095  -0.23416   2.03267
H     3.53706   1.08029  -3.03362
H     4.03983  -0.57665  -2.56094
H     4.64287   0.86462  -1.66406
H     1.42462  -2.94379  -0.11196
H     1.60911  -1.96089   1.36953
H    -0.03709  -2.43277   0.80815
H    -2.72193   0.17268  -0.82397
H    -4.55968   0.21452   0.84074
H    -4.05136  -0.02171   3.27150
H    -1.68961  -0.28643   4.02759
H     0.15049  -0.32591   2.37398
