41
Generated by autodE on: 2022-06-19. E = -936.506233 Ha
C    -3.24899  -0.67619   0.65753
C    -1.83608  -1.04483   0.30201
O    -1.42504  -2.18345   0.45461
C    -0.93584  -0.03354  -0.49961
C    -1.73387   1.24746  -0.83620
C    -2.14909   1.53350  -2.24761
O    -2.01335   2.01012   0.07528
N    -0.36322  -0.70083  -1.67243
C    -1.20753  -1.57294  -2.46684
C     0.95918  -1.24943  -1.36091
C     1.24074  -0.86240   0.10194
N     2.63133  -0.65973   0.45017
C     3.46042  -1.85096   0.42265
C     3.20118   0.55876   0.14515
C     2.49968   1.65657  -0.21006
C     1.00724   1.62500  -0.38849
C     0.34717   0.39383   0.29486
C     0.07170   0.62097   1.78069
N     0.94254   1.40392   2.43430
O    -0.87623   0.07222   2.35569
H    -3.70861  -1.50312   1.21420
H    -3.29496   0.25265   1.23655
H    -3.81435  -0.51173  -0.27616
H    -2.98659   0.86762  -2.51488
H    -1.33455   1.32897  -2.95398
H    -2.48856   2.57471  -2.32227
H    -0.77183  -1.69910  -3.47115
H    -2.20825  -1.13997  -2.59354
H    -1.33202  -2.58093  -2.02508
H     1.73561  -0.83354  -2.02815
H     0.97627  -2.34583  -1.47795
H     0.85169  -1.65853   0.74785
H     4.43989  -1.63414   0.87296
H     2.98121  -2.65027   1.00814
H     3.63070  -2.23390  -0.60203
H     4.28750   0.59711   0.26405
H     3.03030   2.59500  -0.38059
H     0.55115   2.54412   0.00659
H     0.75567   1.60688  -1.46172
H     1.76540   1.78203   1.97066
H     0.83537   1.52379   3.43691
