21
Generated by autodE on: 2022-06-19. E = -478.763803 Ha
C     2.01391  -0.81453  -0.86345
N     1.33005   0.15852  -0.37790
C     1.99990   1.37804   0.10163
C    -0.06124  -0.02128  -0.04111
C    -0.29275  -1.15600   0.81952
C    -1.64861  -1.38317   1.46006
O     0.61225  -1.97603   1.08470
C    -0.95254   0.95795  -0.59364
C    -2.43777   0.94126  -0.28859
O    -0.53077   1.84375  -1.37090
H     3.10090  -0.72686  -0.93769
H     1.50179  -1.70513  -1.22546
H     1.46824   2.24566  -0.30054
H     1.95174   1.38822   1.19942
H     3.04302   1.38202  -0.23565
H    -2.39697  -1.67100   0.70684
H    -1.54273  -2.20710   2.17766
H    -2.02334  -0.49248   1.98136
H    -2.90505   1.74020  -0.87925
H    -2.90419  -0.01797  -0.55290
H    -2.63636   1.12569   0.77729
