41
Generated by autodE on: 2022-06-19. E = -936.456644 Ha. Imaginary frequency = -418.9 cm-1
C    -3.39024   0.83930   0.64653
C    -2.49111  -0.31719   0.26937
O    -2.72186  -1.42348   0.77062
C    -1.37000  -0.11561  -0.66224
C    -1.15434   1.19997  -1.28434
C    -0.66311   1.31087  -2.71624
O    -1.43991   2.24920  -0.69524
N    -0.63433  -1.20065  -1.10653
C    -1.09957  -2.59478  -1.03276
C     0.69684  -1.01899  -1.35002
C     1.67827  -0.70491   0.22529
N     2.93607  -0.28935  -0.29097
C     3.70901  -1.24080  -1.07337
C     3.06432   1.06284  -0.59729
C     2.26624   2.01437  -0.07920
C     1.21109   1.69703   0.95000
C     0.91558   0.22010   0.98568
C    -0.00640  -0.33994   1.97864
N    -0.66474   0.54857   2.77791
O    -0.14418  -1.56687   2.14947
H    -4.25699   0.42073   1.17574
H    -2.86239   1.53281   1.31585
H    -3.72178   1.42020  -0.22437
H    -1.33115   2.02472  -3.22157
H    -0.65147   0.36508  -3.27121
H     0.34666   1.75175  -2.72834
H    -0.55642  -3.16517  -1.79694
H    -2.17163  -2.64557  -1.24168
H    -0.90561  -3.03062  -0.04559
H     0.98113  -0.06811  -1.79473
H     1.18040  -1.88333  -1.80993
H     1.69002  -1.72463   0.61868
H     4.77298  -0.96536  -1.04062
H     3.60274  -2.24382  -0.63811
H     3.40138  -1.28464  -2.13405
H     3.87104   1.30601  -1.29283
H     2.43318   3.05628  -0.35830
H     1.53838   2.03064   1.95763
H     0.28912   2.27318   0.74795
H    -0.74053   1.52343   2.51034
H    -1.42386   0.17483   3.33916
