37
Generated by autodE on: 2022-07-02. E = -3494.411173 Ha
C     0.46180  -5.11960   1.15028
O     0.85573  -3.95402   0.40356
C     0.26679  -2.80633   0.71955
O    -0.56119  -2.67515   1.59124
C     0.73607  -1.67076  -0.21376
C     2.24321  -1.84386  -0.46208
O     3.08503  -1.43174   0.30628
O     2.50644  -2.49698  -1.58418
C     3.89075  -2.75731  -1.87427
C     0.45095  -0.37765   0.39564
C    -0.14476   0.65316   0.61802
C    -1.17674   1.65157   0.47689
Br   -0.38110   3.22016  -0.56785
C    -1.63532   2.34587   1.77599
C    -0.61035   2.51363   2.85751
O    -2.79108   2.70075   1.88769
C    -2.33151   1.03820  -0.33003
C    -1.94034   0.21618  -1.57221
C    -1.59523  -1.28921  -1.38407
C    -0.12390  -1.72770  -1.52719
H    -0.61137  -5.31131   1.01154
H     0.67887  -4.97579   2.21790
H     1.05472  -5.94746   0.74632
H     4.44534  -1.81246  -1.96056
H     4.33305  -3.37521  -1.08004
H     3.90060  -3.29574  -2.82837
H     0.36459   2.81760   2.45086
H    -0.96443   3.23698   3.60295
H    -0.46746   1.53364   3.34441
H    -2.88436   0.39785   0.37870
H    -3.01406   1.85363  -0.60631
H    -1.12530   0.72707  -2.11130
H    -2.81000   0.26552  -2.24430
H    -2.14011  -1.84240  -2.16383
H    -2.00655  -1.65389  -0.42878
H    -0.07614  -2.76194  -1.89503
H     0.38389  -1.09770  -2.27213
