63
Generated by autodE on: 2022-07-02. E = -4051.605105 Ha. Imaginary frequency = -200.8 cm-1
C     4.63233   0.06391   9.84899
O     3.66100   1.09821  10.08857
C     2.43332   0.89447   9.63183
O     2.10936  -0.05641   8.95386
C     1.46992   2.01281  10.06689
C     0.21890   1.86078   9.18433
O     0.24123   2.04661   7.98741
O    -0.87425   1.53812   9.86394
C    -2.08492   1.36242   9.10964
C     2.08824   3.42652   9.74128
C     2.95519   4.04148  10.85364
C     2.27576   5.16659  11.65334
C     0.86998   4.93040  12.23013
C     0.75408   3.77772  13.25376
Br   -1.10975   3.92693  14.07239
C     1.76208   3.96359  14.40681
C     1.63151   5.15936  15.30799
O     2.67001   3.16455  14.53607
C     0.87915   2.48229  12.58037
C     1.15717   1.93132  11.50654
C     1.26628  -0.67081  12.64351
C     1.16991  -1.55328  11.49520
C    -0.07434  -1.75023  10.65294
O     2.19870  -2.16760  11.14445
C     2.59023  -0.69169  13.35243
C     3.60923   0.24334  13.12901
C     4.81697   0.16426  13.82930
C     5.02345  -0.84963  14.76820
C     4.01250  -1.78827  15.00245
C     2.80829  -1.70814  14.30024
N     0.23094  -0.11028  13.35434
C    -1.17527  -0.27862  12.96429
C     0.47497   0.87355  14.21813
H     4.81515  -0.03980   8.77011
H     4.27343  -0.88721  10.26294
H     5.54430   0.38686  10.36274
H    -2.85768   1.10121   9.84097
H    -2.34681   2.29493   8.59022
H    -1.95996   0.55270   8.37731
H     1.24967   4.10077   9.51386
H     2.65652   3.32480   8.80624
H     3.85648   4.47472  10.39307
H     3.31771   3.25984  11.53373
H     2.17467   6.04569  10.99464
H     2.95539   5.47885  12.46428
H     0.54143   5.86309  12.70973
H     0.15224   4.71656  11.42518
H     1.05241   4.86288  16.19791
H     2.63411   5.46077  15.64060
H     1.11088   6.00159  14.83595
H    -0.78119  -2.43032  11.15250
H     0.24467  -2.22031   9.71405
H    -0.59570  -0.81424  10.42894
H     3.45204   1.04062  12.40839
H     5.59763   0.90537  13.64094
H     5.96679  -0.90940  15.31647
H     4.16298  -2.58684  15.73320
H     2.02174  -2.44480  14.48208
H    -1.80514   0.11875  13.76616
H    -1.37072   0.28191  12.04134
H    -1.40781  -1.33713  12.82336
H     1.48588   1.01705  14.58417
H    -0.36223   1.26147  14.79246
