12
Generated by autodE on: 2022-06-03. E = -397.879893 Ha
C    -2.85757   0.05357  -0.31482
O    -1.58120  -0.60330  -0.30390
C    -0.52009   0.15770  -0.02503
O    -0.57527   1.35296   0.21788
C     0.71871  -0.62248  -0.04759
N     1.83237   0.01509   0.21066
O     2.99417  -0.45134   0.24410
H    -3.59371  -0.72252  -0.55274
H    -3.07210   0.49320   0.67002
H    -2.87594   0.84345  -1.07981
H     0.75380  -1.68911  -0.26658
H     1.71173   1.02996   0.40934
