63
Generated by autodE on: 2022-06-12. E = -1660.801031 Ha
C     3.68353   3.33861   1.08011
N     2.79170   2.54639   0.25557
C     1.46670   2.53862   0.46137
O     0.90708   3.27690   1.27632
C     0.66323   1.54080  -0.40999
C     0.72845   2.07510  -1.85241
N    -0.71171   1.54070   0.06886
C    -1.37329   0.26243  -0.13371
C    -2.25313   0.27323  -1.40889
O    -2.67518  -0.78951  -1.88338
N    -2.55541   1.48397  -1.87444
C    -3.39680   1.71988  -3.02753
C    -2.32176   0.00760   1.06167
C    -1.82027   0.11639   2.36856
C    -2.64310  -0.09962   3.47581
C    -3.99243  -0.41575   3.30149
C    -4.50686  -0.50777   2.00645
C    -3.68197  -0.29864   0.89858
C    -0.18247  -0.83435  -0.32492
C    -0.25707  -1.98013   0.69988
C    -1.50664  -2.81840   0.80667
O     0.70620  -2.23850   1.39944
C    -0.19014  -1.45638  -1.78118
C    -0.39113  -2.92929  -2.00161
O     0.06039  -0.72421  -2.71909
C     1.14424   0.02605  -0.18611
C     2.27151  -0.44155  -1.11428
O     3.09663   0.28786  -1.62610
O     2.29004  -1.76160  -1.23169
C     3.28854  -2.34191  -2.08492
C     1.75573  -0.03645   1.24270
O     1.23467   0.43392   2.22967
O     2.99813  -0.51149   1.23461
C     3.70486  -0.50206   2.48444
H     3.58172   4.41602   0.87158
H     3.46864   3.17729   2.14786
H     4.71763   3.03650   0.87397
H     3.18149   1.90559  -0.43539
H     1.75071   2.09911  -2.24132
H     0.33443   3.10184  -1.83447
H     0.11894   1.46900  -2.52529
H    -0.72870   1.83225   1.04285
H    -2.10267   2.25654  -1.38844
H    -4.39787   2.07326  -2.73054
H    -2.93863   2.47858  -3.67812
H    -3.50820   0.78375  -3.58911
H    -0.76894   0.34939   2.52654
H    -2.22142  -0.01964   4.48049
H    -4.63840  -0.58494   4.16608
H    -5.56125  -0.74690   1.84973
H    -4.11463  -0.40326  -0.09434
H    -1.91776  -2.68431   1.81794
H    -2.27399  -2.56097   0.07251
H    -1.21998  -3.87507   0.70592
H    -1.45311  -3.18678  -1.89655
H    -0.06970  -3.16204  -3.02478
H     0.18424  -3.53319  -1.28792
H     4.29251  -2.09859  -1.71027
H     3.11682  -3.42324  -2.05146
H     3.16984  -1.96490  -3.11038
H     3.80538   0.52849   2.85338
H     4.69060  -0.93103   2.27325
H     3.17004  -1.11349   3.22469
