35
Generated by autodE on: 2022-07-27. E = -820.737626 Ha
C     5.00883   1.82400   0.56152
N     3.89025   1.39444  -0.25168
C     2.72083   1.01175   0.30413
O     2.55201   1.02792   1.54580
C     1.64682   0.55671  -0.58888
C     1.77910   0.35612  -2.05706
N     0.55315   0.20715   0.10058
C    -0.68136  -0.22513  -0.22579
C    -1.26987   0.04133  -1.56050
O    -1.97646  -0.79016  -2.15514
N    -1.06136   1.27810  -2.07133
C    -1.43976   1.60693  -3.43090
C    -1.44943  -0.92111   0.80351
C    -0.81150  -1.50370   1.92489
C    -1.55034  -2.11565   2.93818
C    -2.94394  -2.19060   2.85561
C    -3.58986  -1.63797   1.74249
C    -2.86058  -1.01038   0.73532
H     5.83082   2.12786  -0.09796
H     5.36639   1.01509   1.21959
H     4.73387   2.67841   1.20058
H     3.99431   1.38230  -1.25922
H     2.82558   0.14448  -2.32121
H     1.17249  -0.50672  -2.37889
H     1.45218   1.22198  -2.65776
H     0.76196   0.25858   1.11131
H    -0.48458   1.93665  -1.56014
H    -0.95997   0.92878  -4.15617
H    -2.52952   1.53367  -3.57172
H    -1.12627   2.63546  -3.64797
H     0.27832  -1.50446   2.00075
H    -1.02716  -2.55527   3.79101
H    -3.52008  -2.68092   3.64348
H    -4.67868  -1.68858   1.66217
H    -3.38718  -0.57930  -0.11620
