35
Generated by autodE on: 2022-06-12. E = -820.739571 Ha
C     5.40954   0.68327   0.46991
N     4.24498  -0.13672   0.20729
C     2.99805   0.37881   0.25004
O     2.80218   1.58826   0.50890
C     1.86596  -0.51779  -0.03302
C     1.97228  -1.91214  -0.53189
N     0.69703   0.11917   0.07729
C    -0.59271  -0.27404   0.00289
C    -0.93238  -1.67592   0.31999
O    -0.29867  -2.33052   1.16872
N    -1.99077  -2.21459  -0.33274
C    -2.54487  -3.49617   0.05237
C    -1.59246   0.77175  -0.22150
C    -1.25099   1.95244  -0.92266
C    -2.17497   2.98423  -1.09355
C    -3.47417   2.86299  -0.59201
C    -3.83361   1.69641   0.09461
C    -2.91061   0.67022   0.28460
H     6.30779   0.05909   0.38959
H     5.48919   1.51049  -0.25338
H     5.37428   1.12378   1.47987
H     4.37249  -1.12974   0.05389
H     1.81945  -2.66804   0.25687
H     1.18719  -2.09274  -1.28653
H     2.94539  -2.08870  -1.01103
H     0.86057   1.12622   0.23355
H    -2.49291  -1.64543  -1.00467
H    -3.39986  -3.72289  -0.59660
H    -2.88830  -3.49266   1.10062
H    -1.80025  -4.30067  -0.05360
H    -0.25605   2.05365  -1.36163
H    -1.88016   3.88301  -1.64089
H    -4.20066   3.66577  -0.73624
H    -4.84252   1.59057   0.50108
H    -3.20755  -0.21357   0.85056
