28
Generated by autodE on: 2022-06-12. E = -840.023223 Ha
C    -3.01801  -1.12866  -2.20518
O    -2.26888  -0.45635  -1.17901
C    -0.99053  -0.79086  -1.05432
O    -0.43315  -1.60416  -1.76836
C    -0.27553  -0.01225   0.00375
C    -0.99417   0.67030   1.12600
O    -0.55852   1.65457   1.69332
O    -2.11311   0.05020   1.48042
C    -2.84829   0.61618   2.57841
C     1.06725   0.08476  -0.06103
C     1.90241   0.86523   0.94019
C     2.31628   2.23829   0.51623
O     2.26359   0.30966   1.95927
C     1.91063  -0.57873  -1.13692
C     2.48072  -1.91762  -0.78924
O     2.17426   0.05069  -2.14337
H    -4.03455  -0.72429  -2.14639
H    -2.57928  -0.92452  -3.19221
H    -3.02532  -2.21249  -2.02227
H    -2.23342   0.61376   3.48959
H    -3.72901  -0.02229   2.70898
H    -3.15254   1.64566   2.34206
H     1.42612   2.84012   0.28268
H     2.91324   2.71416   1.30564
H     2.90761   2.15838  -0.41144
H     1.68700  -2.59704  -0.44902
H     3.01387  -2.33658  -1.65321
H     3.18160  -1.78383   0.05290
