63
Generated by autodE on: 2022-06-12. E = -1660.766466 Ha. Imaginary frequency = -139.3 cm-1
C     3.75285   3.09954   1.21276
N     2.76581   2.45767   0.36740
C     1.52326   2.20895   0.81381
O     1.09761   2.60881   1.90982
C     0.63958   1.38640  -0.09167
C     0.67393   1.65054  -1.56728
N    -0.53553   1.10770   0.55447
C    -1.64375   0.47830   0.16761
C    -2.12995   0.57269  -1.26443
O    -2.37756  -0.41840  -1.95397
N    -2.36858   1.82973  -1.67419
C    -2.75113   2.11512  -3.04435
C    -2.58559  -0.00522   1.17568
C    -2.18403  -0.22496   2.51238
C    -3.09767  -0.68485   3.45732
C    -4.42384  -0.94411   3.09436
C    -4.83149  -0.73784   1.77211
C    -3.92600  -0.27450   0.82122
C     0.31381  -1.63207  -0.27226
C    -0.40804  -2.44544   0.73943
C    -1.80063  -2.97525   0.47589
O     0.12124  -2.72753   1.81554
C     0.20182  -1.93081  -1.71990
C    -0.55979  -3.12781  -2.23565
O     0.82360  -1.24450  -2.53825
C     1.41508  -0.80963   0.09440
C     2.63956  -0.82456  -0.80900
O     3.27822   0.13390  -1.20117
O     3.02946  -2.08077  -1.03673
C     4.16744  -2.25477  -1.89229
C     1.79109  -0.58648   1.53144
O     1.05249  -0.25542   2.43661
O     3.11594  -0.70586   1.69889
C     3.63242  -0.38302   2.99917
H     4.57362   3.47623   0.58839
H     4.17063   2.40022   1.95747
H     3.29789   3.94192   1.74999
H     3.10006   1.85191  -0.38468
H     1.70427   1.66300  -1.93102
H     0.22863   2.63911  -1.76943
H     0.14061   0.89031  -2.14207
H    -0.41761   1.23134   1.56721
H    -2.09229   2.60266  -1.07659
H    -1.93175   1.87377  -3.74195
H    -2.99238   3.18119  -3.13090
H    -3.63198   1.52257  -3.32998
H    -1.14491  -0.08295   2.80706
H    -2.76644  -0.85686   4.48366
H    -5.13511  -1.31147   3.83735
H    -5.86374  -0.93979   1.47846
H    -4.26283  -0.12910  -0.20523
H    -2.36109  -2.91449   1.41878
H    -2.33933  -2.43778  -0.30822
H    -1.73371  -4.04071   0.20570
H    -0.38830  -4.02450  -1.62526
H    -0.22927  -3.31268  -3.26599
H    -1.63831  -2.92318  -2.25078
H     5.05144  -1.75931  -1.46622
H     4.33176  -3.33639  -1.95815
H     3.95609  -1.83944  -2.88852
H     3.28203  -1.11638   3.73962
H     3.30822   0.62333   3.29738
H     4.72352  -0.42522   2.90767
