40
Generated by autodE on: 2022-10-12. E = -1064.743324 Ha
C     3.75831  -2.36385   0.93051
N     2.73637  -1.59638   0.24334
C     2.04807  -0.63398   0.85434
O     2.23497  -0.28914   2.02853
C     0.98023   0.07605  -0.00207
C     1.44025   1.55039  -0.16593
C     2.28516   1.85186  -1.36622
O     1.13011   2.38660   0.65689
O     0.93220  -0.54259  -1.29104
C    -0.40544  -0.59078  -1.77885
C    -0.47284   0.03376  -3.10545
N    -0.53139   0.53875  -4.14808
C    -1.28088   0.14291  -0.72871
N    -2.65391  -0.29983  -0.70057
C    -3.64863   0.64534  -1.18479
C    -3.02224  -1.21403   0.27276
C    -2.16212  -1.83668   1.10318
C    -0.69187  -1.53542   1.06843
C    -0.46190  -0.08765   0.56449
C    -0.90300   0.91511   1.65298
N    -0.27824   0.80676   2.83845
O    -1.84330   1.68806   1.45639
H     3.32161  -2.97834   1.73378
H     4.50788  -1.69543   1.37947
H     4.25265  -3.02222   0.20666
H     2.47667  -1.81987  -0.71322
H     1.64840   1.83775  -2.26603
H     3.05672   1.08080  -1.50757
H     2.73832   2.84504  -1.25481
H    -0.72421  -1.64022  -1.87677
H    -1.26599   1.21773  -0.94956
H    -4.61813   0.13706  -1.28495
H    -3.35904   1.02097  -2.17693
H    -3.77257   1.50788  -0.50477
H    -4.09510  -1.42021   0.30935
H    -2.54260  -2.57742   1.80793
H    -0.15432  -2.23746   0.40771
H    -0.24147  -1.65539   2.06242
H    -0.49452   1.51154   3.53775
H     0.64781   0.37205   2.85708
