40
Generated by autodE on: 2022-10-12. E = -1064.655856 Ha. Imaginary frequency = -328.8 cm-1
C     1.85988  -3.77744   0.22307
N     1.57263  -2.49810  -0.38929
C     1.74413  -1.33985   0.28258
O     2.33317  -1.27621   1.37094
C     1.17868  -0.11951  -0.36513
C     1.78943   1.20906  -0.24844
C     2.75690   1.50860   0.86413
O     1.52664   2.06154  -1.09845
O     0.46291  -0.42307  -1.45204
C    -0.60082   0.17979  -1.98389
C    -0.67126   1.51991  -2.44812
N    -0.94263   2.54395  -2.94018
C    -1.85197   0.07355  -0.03897
N    -2.31522  -1.21530  -0.03342
C    -3.21537  -1.66584  -1.08161
C    -1.69003  -2.16964   0.78186
C    -0.88918  -1.82355   1.79904
C    -0.61924  -0.37854   2.11851
C    -0.90847   0.50432   0.91876
C    -0.77365   1.98347   1.05374
N    -0.09342   2.42542   2.13392
O    -1.28750   2.77310   0.24875
H     2.79378  -3.71833   0.79722
H     1.97155  -4.53899  -0.55980
H     1.05277  -4.09178   0.90818
H     0.95114  -2.47980  -1.19065
H     2.38810   1.18232   1.84219
H     2.95652   2.58809   0.86283
H     3.69652   0.96239   0.68128
H    -1.17677  -0.51595  -2.59998
H    -2.47746   0.81268  -0.53620
H    -3.79113  -0.81203  -1.46142
H    -2.66255  -2.12108  -1.92252
H    -3.91563  -2.41200  -0.68126
H    -1.91723  -3.20768   0.53312
H    -0.42721  -2.60103   2.40868
H     0.42064  -0.26277   2.46081
H    -1.24982  -0.04379   2.96931
H     0.05904   3.42403   2.23181
H     0.39778   1.80084   2.76072
