40
Generated by autodE on: 2022-05-31. E = -1454.493242 Ha. Imaginary frequency = -271.4 cm-1
N    -1.80838   2.29124  -3.52646
C    -1.21228   1.80777  -2.64310
C    -0.71310   1.15463  -1.51398
N     0.41575   0.99584  -1.05962
C     1.14694   0.43895  -0.11906
C     1.75915  -0.86981  -0.41090
C     2.22420  -1.69134   0.63572
C     2.71769  -2.96705   0.36601
C     2.75674  -3.44860  -0.94733
C     2.29461  -2.64115  -1.99153
C     1.80165  -1.36356  -1.72854
C     1.56411   1.30182   1.01435
C     2.86823   1.23845   1.53789
C     3.24721   2.06966   2.59412
C     2.33551   2.97777   3.13914
C     1.03985   3.05745   2.61473
C     0.65766   2.23205   1.55913
C    -1.15171  -0.61655   0.78585
C    -1.18590  -2.04062   0.19793
C    -2.54784  -2.65297   0.60058
C    -3.45683  -1.99274  -0.12530
C    -2.63601  -0.98879  -0.96402
O    -1.44382  -1.75073  -1.19673
C    -2.05307   0.05949   0.01677
Cl   -2.99842   1.44715   0.50721
H     2.16334  -1.34533   1.66767
H     3.06473  -3.59412   1.19041
H     3.14426  -4.44848  -1.15506
H     2.32261  -3.00640  -3.02065
H     1.45126  -0.73771  -2.55090
H     3.59570   0.54923   1.10858
H     4.26459   2.01007   2.98734
H     2.63322   3.62508   3.96718
H     0.32120   3.76561   3.03336
H    -0.35758   2.29879   1.16509
H    -0.78109  -0.35520   1.77339
H    -0.29386  -2.66189   0.32423
H    -2.69083  -3.41218   1.36933
H    -4.54359  -2.06697  -0.11969
H    -3.07817  -0.60293  -1.88873
