47
Generated by autodE on: 2022-06-06. E = -1574.485523 Ha
C    -3.66623   1.10077   2.32825
N    -2.88175   0.43779   1.30445
C    -2.51292   1.08776   0.18796
O    -2.90973   2.22464  -0.09817
C    -1.58844   0.38524  -0.74811
C    -1.41285  -0.90917  -1.07047
C    -2.08831  -2.13356  -0.54093
F    -3.42473  -2.05369  -0.63653
F    -1.69786  -3.23096  -1.20650
F    -1.80756  -2.35610   0.76886
C    -0.33589  -0.91389  -2.15183
O    -0.63494   0.30763  -2.83984
C    -0.64786   1.14952  -1.67879
C     0.84552   0.96408  -1.24050
C     1.03777  -0.55232  -1.49472
C     1.37106  -1.17926  -0.13454
C     2.81901  -1.67191  -0.09200
O     3.75993  -1.09259  -0.59567
O     2.93416  -2.79777   0.61136
C     4.26155  -3.31689   0.79507
N     1.13388  -0.11494   0.85255
C     1.70318  -0.30608   2.17816
C     1.26136   1.18961   0.23627
C     2.65144   1.72021   0.27952
N     3.74299   2.10305   0.36893
C     0.37004   2.24909   0.93344
O    -0.30672   2.04134   1.91124
O     0.45007   3.40570   0.29213
C    -0.35545   4.49039   0.79526
H    -3.97956   0.35958   3.07360
H    -4.55864   1.56543   1.88664
H    -3.07842   1.88840   2.82952
H    -2.38895  -0.41245   1.55660
H    -0.32121  -1.77181  -2.82971
H    -0.94288   2.17525  -1.91335
H     1.45062   1.58487  -1.90807
H     1.83341  -0.73729  -2.22307
H     0.73080  -2.03862   0.11182
H     4.88517  -2.58466   1.32774
H     4.14947  -4.22865   1.39247
H     4.71856  -3.55022  -0.17710
H     1.32501   0.46664   2.85824
H     2.81016  -0.26731   2.18529
H     1.39100  -1.28628   2.56435
H    -1.41822   4.22227   0.72534
H    -0.13035   5.34969   0.15453
H    -0.08775   4.70557   1.83878
