23
Generated by autodE on: 2022-06-06. E = -852.834036 Ha
C     1.92053   2.37544   0.15430
N     2.52135   1.06234   0.29994
C     1.91269  -0.10823   0.54334
O     2.52494  -1.18102   0.65525
C     0.44149  -0.15739   0.74224
C    -0.61491   0.07576  -0.04546
C    -0.70756   0.61762  -1.42303
F    -1.43150  -0.20877  -2.20681
F    -1.32176   1.81823  -1.45491
F     0.49287   0.77352  -2.00893
C    -1.82106  -0.57579   0.68357
C    -1.60244  -2.10257   0.59657
C    -0.54958  -2.34070   1.38408
C    -0.15225  -0.95660   1.93933
O    -1.43458  -0.32451   2.04130
H     0.89848   2.37226   0.55058
H     1.88534   2.69091  -0.89968
H     2.50732   3.11380   0.71956
H     3.52886   0.99097   0.16890
H    -2.81379  -0.18059   0.44518
H    -2.17218  -2.77861  -0.03931
H    -0.01045  -3.26650   1.57833
H     0.41548  -0.91999   2.87416
