24
Generated by autodE on: 2022-06-06. E = -721.562517 Ha
C     4.91269  -0.35795   0.36137
O     3.54294  -0.11988   0.70629
C     2.63561  -0.32540  -0.26576
O     2.93539  -0.69273  -1.38928
C     1.30669  -0.03617   0.27317
N     0.16462  -0.12032  -0.38888
C     0.18601  -0.52619  -1.81748
C    -1.04615   0.13495   0.22940
C    -1.01237   0.41657   1.61519
N    -0.94948   0.64160   2.75906
C    -2.35603   0.17160  -0.42290
O    -2.63039   0.01139  -1.60319
O    -3.30676   0.42950   0.49795
C    -4.65529   0.51305   0.02365
H     5.49417  -0.13447   1.26323
H     5.22342   0.29933  -0.46409
H     5.05940  -1.40706   0.06480
H     1.26566   0.26768   1.31697
H     0.63543  -1.52230  -1.88200
H    -0.83207  -0.52905  -2.19969
H     0.80797   0.18490  -2.37040
H    -4.75777   1.32061  -0.71597
H    -5.26927   0.72951   0.90567
H    -4.96704  -0.43896  -0.43033
