24
Generated by autodE on: 2022-07-27. E = -721.561765 Ha
C     3.29493  -1.11977  -0.13484
O     1.89908  -1.12445   0.20276
C     1.15237  -2.08673  -0.33468
O     1.59341  -3.01083  -0.99275
C    -0.27652  -2.01110   0.02592
N    -0.98865  -0.93145   0.27932
C    -2.31730  -1.15881   0.90267
C    -0.62959   0.36329  -0.06198
C     0.25994   0.56364  -1.13681
N     0.96715   0.72504  -2.05263
C    -1.18599   1.52166   0.62206
O    -1.92140   1.51389   1.59811
O    -0.76489   2.66433   0.03998
C    -1.20564   3.88721   0.63902
H     3.41979  -1.03286  -1.22319
H     3.77884  -2.03970   0.22276
H     3.72103  -0.24456   0.36798
H    -0.78629  -2.97078   0.10213
H    -3.06226  -0.51956   0.41953
H    -2.57276  -2.21491   0.77346
H    -2.25409  -0.91643   1.96845
H    -2.30238   3.96466   0.60511
H    -0.75362   4.69200   0.04739
H    -0.86909   3.95291   1.68422
