47
Generated by autodE on: 2022-06-06. E = -1574.384873 Ha. Imaginary frequency = -292.4 cm-1
C    -3.65300   2.02475   1.95664
N    -3.15609   1.06626   0.98769
C    -2.25753   1.42660   0.05875
O    -1.87341   2.59822  -0.07513
C    -1.70108   0.40084  -0.86847
C    -1.62386  -0.94119  -0.96121
C    -2.26527  -2.08623  -0.25559
F    -3.27138  -2.58593  -0.99741
F    -1.39444  -3.09794  -0.06269
F    -2.78643  -1.78494   0.95211
C    -0.74382  -1.20902  -2.19935
O    -1.19309  -0.13423  -3.04440
C    -0.89755   0.90529  -2.08380
C     0.58867   0.63289  -1.83555
C     0.71165  -0.74340  -1.89467
C     1.49787  -1.44758   0.02798
C     2.94239  -1.60433  -0.35162
O     3.32953  -2.09775  -1.39155
O     3.75002  -1.24383   0.64516
C     5.16206  -1.30720   0.38891
N     1.08534  -0.52318   0.93035
C     0.11845  -0.94998   1.96086
C     1.38329   0.81387   0.76011
C     2.55689   1.20115   0.06435
N     3.51394   1.54870  -0.50664
C     0.70682   1.87906   1.52179
O    -0.12628   1.73629   2.39931
O     1.12774   3.08532   1.10735
C     0.52018   4.22625   1.72723
H    -4.41018   1.53555   2.58086
H    -4.10886   2.89043   1.45305
H    -2.83815   2.39246   2.60035
H    -3.39882   0.08890   1.09536
H    -0.85063  -2.18887  -2.67464
H    -1.16363   1.90189  -2.44269
H     1.35992   1.38434  -1.96861
H     1.55360  -1.28736  -2.32016
H     1.01660  -2.42346   0.12598
H     5.41913  -0.65554  -0.45812
H     5.64864  -0.95226   1.30423
H     5.46519  -2.34052   0.16951
H    -0.84586  -0.45364   1.85030
H     0.52759  -0.69933   2.94719
H     0.00586  -2.03469   1.88680
H    -0.55864   4.24054   1.51938
H     1.00438   5.10190   1.27960
H     0.68882   4.21332   2.81364
