40
Generated by autodE on: 2022-06-17. E = -769.895259 Ha
C    -1.55377  -2.40713  -2.02719
C    -0.55040  -2.29917  -1.14610
C     0.74374  -3.04943  -1.31730
C    -0.57428  -1.40864   0.07960
C    -1.92614  -0.73938   0.42169
C    -2.14275  -0.78616   1.89019
N    -2.31716  -0.77964   3.03831
N    -1.81278   0.62991  -0.07362
C    -2.86252   1.53545   0.36733
C    -0.45787   1.04582   0.25586
C     0.08363   2.23238  -0.52315
C    -0.36636   2.43328  -1.94209
O     0.92543   2.94673   0.00018
C     0.41410  -0.19983  -0.08125
C     1.65103  -0.28318   0.75646
C     2.90550   0.01852   0.37423
C     4.05420  -0.08474   1.34118
C     3.28427   0.49239  -1.00318
H    -1.45720  -3.05667  -2.90209
H    -2.49575  -1.86310  -1.92572
H     0.94238  -3.68626  -0.43823
H     1.59738  -2.35474  -1.39406
H     0.73075  -3.68267  -2.21581
H    -0.24689  -2.01854   0.93485
H    -2.78939  -1.24812  -0.03000
H    -2.84767   1.71091   1.46192
H    -3.84585   1.12263   0.09747
H    -2.75589   2.50899  -0.13110
H    -0.34754   1.29373   1.33125
H    -1.40229   2.80943  -1.95075
H    -0.36680   1.48194  -2.49438
H     0.28617   3.16437  -2.43697
H     0.68208  -0.13567  -1.14312
H     1.48537  -0.59354   1.79537
H     4.82051  -0.78539   0.96493
H     4.55796   0.89146   1.45482
H     3.72928  -0.42546   2.33537
H     2.44273   0.51510  -1.70776
H     3.70491   1.51142  -0.94911
H     4.07557  -0.14946  -1.42761
