23
Generated by autodE on: 2022-06-17. E = -351.521385 Ha
C    -3.35780   1.21359   1.24524
C    -2.41565   0.85621   0.34508
C    -2.68591   0.91471  -1.13674
C    -1.10353   0.40321   0.80254
C    -0.07493   0.02336   0.00339
C     1.20855  -0.41771   0.51037
C     2.28470  -0.80745  -0.21877
C     2.32396  -0.84611  -1.72008
C     3.55476  -1.24123   0.45681
H    -3.15837   1.17057   2.32046
H    -4.34746   1.55629   0.93052
H    -1.97616   1.58948  -1.64361
H    -2.56358  -0.07719  -1.60272
H    -3.70591   1.26922  -1.34180
H    -0.95810   0.37645   1.88923
H    -0.21196   0.04822  -1.08104
H     1.30618  -0.43261   1.60267
H     3.14170  -0.20661  -2.09695
H     2.55021  -1.86883  -2.07015
H     1.38947  -0.52115  -2.19518
H     4.40223  -0.60596   0.14200
H     3.47767  -1.20018   1.55324
H     3.82188  -2.27244   0.16348
