17
Generated by autodE on: 2022-06-17. E = -418.325983 Ha
C     3.28137   0.85011  -0.24677
C     1.94467   0.19641   0.02273
O     1.90349  -0.89945   0.61777
C     0.78525   0.90018  -0.43867
N    -0.48846   0.46775  -0.28836
C    -1.55428   1.33350  -0.84181
C    -0.86095  -0.66917   0.31407
C    -2.21301  -1.03132   0.41978
N    -3.32325  -1.38152   0.53599
H     3.79667   1.02145   0.71244
H     3.90817   0.15679  -0.83083
H     3.19690   1.80297  -0.78609
H     0.89488   1.85046  -0.95307
H    -2.22489   1.64181  -0.02969
H    -2.12211   0.76902  -1.59237
H    -1.09976   2.21356  -1.30437
H    -0.07626  -1.30459   0.72035
