40
Generated by autodE on: 2022-06-17. E = -769.830180 Ha. Imaginary frequency = -365.3 cm-1
C    -1.09484  -1.46672  -2.62647
C    -0.92066  -2.13101  -1.46871
C    -1.52084  -3.49635  -1.25187
C    -0.14112  -1.60357  -0.32308
C    -1.82431  -0.87898   0.86768
C    -1.24416  -1.16728   2.13889
N    -0.74793  -1.43671   3.15878
N    -1.82653   0.41496   0.41052
C    -2.81662   0.77121  -0.61565
C    -0.66041   1.10383   0.57229
C    -0.32632   2.35766  -0.09214
C     0.84745   3.08888   0.51141
O    -0.91430   2.80296  -1.08365
C     0.71022  -0.47365  -0.41351
C     1.90240  -0.39023   0.41816
C     3.02842   0.32138   0.16776
C     4.18933   0.29254   1.12227
C     3.23772   1.15878  -1.06408
H    -1.69711  -1.89485  -3.43242
H    -0.65492  -0.48315  -2.80745
H    -2.16407  -3.50896  -0.35571
H    -0.72775  -4.24324  -1.07500
H    -2.11836  -3.82329  -2.11479
H     0.15938  -2.36852   0.39926
H    -2.70764  -1.47345   0.62773
H    -2.36099   0.81761  -1.60890
H    -3.60790   0.01332  -0.60543
H    -3.25148   1.75092  -0.38090
H    -0.13624   0.90464   1.50546
H     1.62895   2.39073   0.84491
H     1.25316   3.81160  -0.20848
H     0.49860   3.63235   1.40686
H     0.71556   0.07591  -1.35521
H     1.87268  -0.98512   1.33908
H     5.10897  -0.05289   0.61624
H     4.41149   1.30692   1.50033
H     4.00044  -0.36379   1.98477
H     2.33103   1.27907  -1.67129
H     3.60345   2.16314  -0.79254
H     4.01867   0.70871  -1.70383
