13
Generated by autodE on: 2022-06-01. E = -449.162641 Ha
C    -2.55776   1.01167   0.05082
N    -2.40441  -0.10430  -0.86520
C    -1.28493  -0.79100  -1.11322
O    -1.15452  -1.72894  -1.89564
C    -0.09064  -0.36693  -0.36153
N     0.95152  -0.19825   0.12686
N     2.13650  -0.11958   0.58007
C     2.39176   0.80773   1.49392
N     2.74891   1.57738   2.30058
H    -2.83808   1.92558  -0.49369
H    -1.61391   1.20013   0.58020
H    -3.33374   0.79048   0.79789
H    -3.21804  -0.40804  -1.39860
