46
Generated by autodE on: 2022-05-31. E = -1277.957702 Ha
C    -2.32430   0.47995   3.09735
C    -1.61136   0.94274   1.82136
C    -2.34341   2.16574   1.20106
C    -1.43047   3.20511   0.54707
C    -0.42197   2.67543  -0.47775
C     0.76100   1.90640   0.14869
C     0.84535   0.37259  -0.16908
C     1.63813   0.30107  -1.50303
F     0.98645   0.95740  -2.47659
F     2.84697   0.88694  -1.39846
F     1.88413  -0.94328  -1.94231
C     1.71924  -0.29901   0.92941
F     1.09986  -0.31389   2.11980
F     2.01518  -1.57670   0.63309
F     2.88778   0.33882   1.12013
C    -0.53051  -0.33184  -0.19315
C    -1.48300  -0.12364   0.74836
C    -2.64270  -1.08933   0.53163
C    -2.68612  -2.24841   1.54211
N    -2.45978  -1.58026  -0.83901
C    -1.02176  -1.44366  -1.18471
C    -0.31483  -2.79184  -0.95412
C    -0.99444  -1.09568  -2.68035
H    -1.82424  -0.38752   3.55262
H    -3.37853   0.21996   2.91741
H    -2.30820   1.29987   3.83232
H    -0.62088   1.26777   2.14672
H    -2.92187   2.66898   1.99325
H    -3.08496   1.80476   0.46819
H    -2.06647   3.96257   0.05883
H    -0.87221   3.74009   1.33649
H    -0.01156   3.53362  -1.03103
H    -0.94011   2.05597  -1.22445
H     1.70575   2.35961  -0.17286
H     0.75570   2.03787   1.23514
H    -3.60495  -0.55549   0.59136
H    -3.34296  -3.03764   1.14613
H    -3.08073  -1.93736   2.51655
H    -1.68932  -2.68400   1.70527
H    -2.95160  -0.92137  -1.44222
H    -0.79785  -3.56272  -1.57435
H    -0.38611  -3.10479   0.09607
H     0.74632  -2.75046  -1.22291
H    -0.00578  -1.19161  -3.13750
H    -1.66234  -1.80249  -3.19753
H    -1.37273  -0.07788  -2.85841
