17
Generated by autodE on: 2022-05-31. E = -251.967797 Ha
C     2.71836   0.38384  -0.00356
C     1.26227   0.70910   0.07134
N     0.35124  -0.28776   0.06716
C    -0.97873  -0.27488  -0.06727
C    -1.75327  -1.52809   0.18352
C    -1.63388   1.04625  -0.25322
H     3.13501   0.37259  -1.03502
H     2.92450  -0.61296   0.42640
H     3.32586   1.11117   0.56279
H     0.89569   1.71716  -0.12232
H     0.75286  -1.21785   0.20902
H    -2.30561  -1.51088   1.14687
H    -1.09135  -2.41002   0.20876
H    -2.51275  -1.70531  -0.59979
H    -1.21226   1.59854  -1.11819
H    -2.71624   0.93420  -0.41089
H    -1.48592   1.71588   0.62351
