17
Generated by autodE on: 2022-07-26. E = -251.962841 Ha
C    -0.23998  -0.41464   2.29740
C    -1.05161   0.29254   1.26347
N    -0.66469   0.50843  -0.01430
C     0.32477   0.10814  -0.82317
C     1.32206  -0.93956  -0.43830
C     0.23623   0.49811  -2.26764
H     0.04373  -1.44546   2.02019
H    -0.82854  -0.48317   3.22566
H     0.70533   0.10727   2.56132
H    -1.87434   0.93694   1.57515
H    -1.31071   1.13701  -0.49370
H     0.93188  -1.96853  -0.59256
H     1.65393  -0.87549   0.60602
H     2.21633  -0.84994  -1.07612
H     1.19833   0.89051  -2.64541
H    -0.01911  -0.36222  -2.92243
H    -0.52810   1.27442  -2.43784
