46
Generated by autodE on: 2022-05-31. E = -1277.838045 Ha. Imaginary frequency = -72.3 cm-1
C    -3.55166   0.75627   2.25983
C    -2.12980   1.23309   1.95963
C    -2.14956   2.65798   1.35544
C    -0.81990   3.42154   1.27319
C     0.18903   3.08538   0.15309
C     1.28226   2.04949   0.48240
C     1.04059   0.59204  -0.02170
C     1.22552   0.52769  -1.56178
F     0.13449   0.98241  -2.19787
F     2.26230   1.27509  -1.97636
F     1.45428  -0.71848  -2.01041
C     2.09382  -0.32330   0.65289
F     2.06053  -0.18590   1.98732
F     1.89930  -1.62549   0.39926
F     3.34158  -0.02042   0.24945
C    -0.30781   0.15824   0.38855
C    -1.29900   0.37566   1.08470
C    -2.67735  -1.93567   0.74327
C    -1.90344  -2.71281   1.75186
N    -2.38308  -1.86968  -0.56784
C    -1.32467  -2.18292  -1.33041
C    -0.34327  -3.26209  -0.98364
C    -1.44517  -1.84120  -2.78770
H    -3.55184  -0.22252   2.75829
H    -4.14665   0.67369   1.33728
H    -4.04989   1.47874   2.92525
H    -1.58965   1.29223   2.92338
H    -2.83447   3.25531   1.98036
H    -2.61161   2.60699   0.35359
H    -1.09127   4.48211   1.14316
H    -0.30696   3.36716   2.25029
H     0.72051   4.01959  -0.08479
H    -0.35106   2.81417  -0.76632
H     2.25261   2.38621   0.09220
H     1.38778   1.98481   1.57325
H    -3.68980  -1.61270   0.97014
H    -1.89652  -3.80525   1.56614
H    -2.35078  -2.55516   2.74502
H    -0.84967  -2.39087   1.81079
H    -3.06489  -1.30392  -1.07375
H    -0.67008  -4.23405  -1.41066
H    -0.19066  -3.40705   0.08926
H     0.63529  -3.03842  -1.43248
H    -0.47233  -1.54800  -3.20904
H    -1.79732  -2.70789  -3.38609
H    -2.14720  -1.00925  -2.95828
