24
Generated by autodE on: 2022-07-26. E = -460.099953 Ha
C     2.16265   3.21205   0.05066
N     1.71481   1.92332   0.53299
C     0.90660   1.12605  -0.26870
O     0.85982   1.37814  -1.50433
C     0.22830   0.08973   0.43484
N    -0.55090  -0.91825  -0.12640
C    -0.35829  -1.26221  -1.55015
C    -1.39908  -1.65117   0.58016
C    -2.08112  -2.83005  -0.04012
C    -1.62435  -1.31307   2.01287
H     2.84078   3.65730   0.79171
H     2.71381   3.10239  -0.89421
H     1.33542   3.92567  -0.13069
H     1.55941   1.85396   1.53336
H     0.29091   0.07994   1.51852
H     0.28440  -0.50769  -2.00580
H    -1.32614  -1.27710  -2.06611
H     0.09879  -2.25845  -1.62144
H    -2.72886  -2.54193  -0.88639
H    -1.35976  -3.56694  -0.43506
H    -2.70667  -3.33442   0.70656
H    -0.73769  -1.54557   2.63404
H    -1.80922  -0.23041   2.13639
H    -2.47584  -1.87572   2.41540
