24
Generated by autodE on: 2022-05-30. E = -460.099633 Ha
C     3.00383   1.20845   0.51715
N     2.65401   0.31857  -0.56701
C     1.43511  -0.32315  -0.72513
O     1.38410  -1.24375  -1.59372
C     0.37802   0.15325   0.09859
N    -0.93930  -0.30712   0.10754
C    -1.23314  -1.65791  -0.41265
C    -1.93314   0.37861   0.65004
C    -1.66737   1.74586   1.17781
C    -3.29415  -0.23089   0.77390
H     4.06682   1.47076   0.43048
H     2.42872   2.14864   0.47862
H     2.84196   0.76035   1.51542
H     3.41364  -0.17320  -1.02556
H     0.55866   1.00847   0.73623
H    -1.50828  -2.31460   0.42396
H    -0.34335  -2.03054  -0.92222
H    -2.07092  -1.61170  -1.11896
H    -1.02744   1.71535   2.08058
H    -1.12179   2.35691   0.43609
H    -2.60513   2.24930   1.44280
H    -3.27411  -1.17806   1.34050
H    -3.73727  -0.46383  -0.21004
H    -3.96795   0.46173   1.29276
