43
Generated by autodE on: 2022-06-13. E = -1148.807218 Ha
C    -0.02416  -2.72148   3.91894
O     0.46898  -1.82030   2.91360
C     0.93154  -2.36461   1.79015
O     0.95032  -3.55365   1.56738
C     1.45400  -1.28319   0.83412
C     2.79395  -0.76532   1.41346
C     3.14312   0.66718   1.15670
O     3.51298  -1.53832   2.01681
C     0.44910  -0.25040   0.61596
C    -0.38533   0.41063   0.04014
C    -1.22922   0.83583  -1.07143
C    -0.65294   2.03748  -1.84159
O    -1.31641   2.66254  -2.64136
O     0.62294   2.27445  -1.57591
C     1.25060   3.34789  -2.30167
C    -2.63132   1.26369  -0.60378
O    -3.66674   0.75617  -0.96627
O    -2.54746   2.27387   0.25809
C    -3.78410   2.79792   0.77213
C    -1.31773  -0.38092  -2.04705
C     0.02334  -1.05278  -2.40130
C     0.55209  -2.18288  -1.47271
C     1.77061  -1.88329  -0.57619
H    -0.86026  -3.31445   3.52197
H    -0.36376  -2.09067   4.74806
H     0.77905  -3.39331   4.25364
H     2.52401   1.29398   1.82107
H     2.89369   0.95905   0.12579
H     4.20449   0.84374   1.37278
H     1.22274   3.14096  -3.38053
H     2.28542   3.38377  -1.94418
H     0.73700   4.29631  -2.09152
H    -4.40416   3.18122  -0.05063
H    -3.50631   3.61109   1.45183
H    -4.33193   2.01487   1.31507
H    -1.81118  -0.01924  -2.96125
H    -1.99648  -1.11338  -1.58645
H     0.80401  -0.28662  -2.54079
H    -0.12630  -1.49850  -3.39631
H     0.86753  -3.01272  -2.12354
H    -0.27087  -2.58808  -0.86166
H     2.34104  -2.80485  -0.39513
H     2.44243  -1.18288  -1.09614
