64
Generated by autodE on: 2022-06-13. E = -1661.583487 Ha. Imaginary frequency = -264.4 cm-1
C     4.37513  -4.52277  10.02985
O     3.52283  -3.59411  10.71615
C     2.44215  -4.09017  11.31365
O     2.18547  -5.26977  11.38106
C     1.56431  -2.95476  11.88973
C     2.55431  -1.85687  12.35140
O     2.64683  -0.73758  11.89976
O     3.32642  -2.31969  13.33283
C     4.34219  -1.43706  13.83528
C     0.70525  -3.46536  13.09972
C    -0.73376  -2.95040  13.22250
C    -1.01131  -1.48681  13.61536
C    -0.65337  -0.32185  12.67382
C    -1.06042  -0.50701  11.17820
C    -0.92839   0.80578  10.36371
C     0.30164   1.63113  10.59012
O    -1.78243   1.10556   9.54975
C    -2.51782  -0.97413  11.09835
O    -2.90275  -2.00901  10.59730
O    -3.32518  -0.10308  11.69972
C    -4.72500  -0.42262  11.72464
C    -0.14820  -1.50925  10.57715
C     0.68005  -2.39524  10.84005
N     1.11752  -3.42232   8.96130
C     0.10778  -4.37059   8.68442
C    -0.15468  -4.73242   7.34640
C    -1.08723  -5.72642   7.05291
C    -1.76753  -6.38908   8.07999
C    -1.49398  -6.04552   9.40774
C    -0.56459  -5.05014   9.71387
N     1.11164  -2.31916   8.24759
C     0.06245  -1.48607   8.04977
C    -1.35814  -1.88883   7.77252
C     0.45759  -0.18743   7.60249
N     0.75345   0.88833   7.26656
H     4.74533  -5.29000  10.72407
H     3.82245  -4.99932   9.20780
H     5.20859  -3.93106   9.63495
H     3.88591  -0.52899  14.25405
H     5.03806  -1.16322  13.02946
H     4.86587  -1.99653  14.61848
H     1.26247  -3.26599  14.02500
H     0.65301  -4.55762  12.99600
H    -1.18864  -3.56131  14.02021
H    -1.29169  -3.20982  12.31212
H    -0.51195  -1.27833  14.57699
H    -2.09261  -1.42773  13.82453
H     0.42530  -0.12855  12.69132
H    -1.14810   0.58424  13.05624
H     0.41179   2.36207   9.77999
H     0.19946   2.16305  11.55061
H     1.19422   0.99451  10.66718
H    -5.11628  -0.49848  10.70016
H    -4.88939  -1.37221  12.25358
H    -5.21246   0.40062  12.25882
H     0.38109  -4.22601   6.54175
H    -1.28030  -5.98599   6.00906
H    -2.49923  -7.16606   7.84855
H    -2.01676  -6.55164  10.22301
H    -0.38366  -4.78590  10.75219
H     2.01914  -1.84756   8.27249
H    -1.45509  -2.23035   6.72698
H    -1.70973  -2.67717   8.43892
H    -1.99992  -1.00971   7.91245
