49
Generated by autodE on: 2022-06-24. E = -1335.805384 Ha
C     3.09883   0.19867   3.18452
O     2.32078   0.52258   2.01851
C     2.27279  -0.38646   1.06169
O     2.86650  -1.44539   1.09632
C     1.45823   0.04838  -0.17940
C     2.33447   1.12527  -0.89728
C     2.92795   0.74486  -2.22118
O     2.61259   2.16620  -0.33491
N     1.22855  -1.11281  -1.03052
C    -0.09062  -1.71434  -0.78970
C    -0.02154  -3.21166  -0.47660
C    -0.90383  -1.56496  -2.02408
N    -1.50067  -1.49422  -3.01625
C    -0.69528  -0.86617   0.39239
O    -0.24255  -1.48321   1.56001
C    -0.67685  -1.04000   2.84946
C    -2.22720  -0.78469   0.34523
O    -2.87512  -1.66271   0.89155
C    -2.87572   0.32946  -0.38886
C    -4.36834   0.30890  -0.47328
C    -2.13876   1.27811  -1.03689
C    -2.77427   2.32986  -1.88839
C    -0.65890   1.21809  -1.02669
O     0.01544   1.75216  -1.88986
C    -0.00695   0.50565   0.17499
O    -0.23671   1.25672   1.32632
C     0.06051   2.65228   1.34707
H     2.71728  -0.72037   3.65021
H     2.98416   1.04934   3.86510
H     4.15465   0.06487   2.91011
H     2.14783   0.46181  -2.93806
H     3.52236   1.58523  -2.60220
H     3.57608  -0.13662  -2.08388
H     1.96716  -1.80006  -0.88752
H     0.62985  -3.37157   0.38930
H    -1.02536  -3.60076  -0.25758
H     0.38777  -3.74604  -1.34585
H    -1.61339  -0.47065   2.80852
H     0.09821  -0.41548   3.31474
H    -0.83431  -1.94257   3.45795
H    -4.79132  -0.45590   0.18819
H    -4.68631   0.09158  -1.50754
H    -4.78950   1.29173  -0.21139
H    -3.54015   2.88007  -1.32005
H    -2.02983   3.03711  -2.27253
H    -3.28912   1.86383  -2.74597
H    -0.43917   3.19190   0.52566
H    -0.33417   3.02344   2.30186
H     1.14081   2.82915   1.29266
