26
Generated by autodE on: 2022-06-24. E = -689.460830 Ha
C    -2.96357  -1.28726   0.41109
O    -2.20364  -0.15629   0.85046
C    -0.91731  -0.08327   0.39818
C    -0.50189   0.83989  -0.51478
O    -1.21140   1.76397  -1.16204
C    -2.63568   1.85925  -1.05766
C     0.95321   0.91489  -0.89394
O     1.30823   1.75752  -1.70678
C     1.91788  -0.03861  -0.28842
C     3.35139   0.06236  -0.70939
C     1.49168  -0.96046   0.61034
C     2.42750  -1.94110   1.24337
C     0.05567  -1.00676   1.02079
O    -0.32607  -1.79661   1.88280
H    -3.96285  -1.18355   0.85431
H    -3.05076  -1.29304  -0.68816
H    -2.51045  -2.23087   0.74854
H    -2.91984   2.67931  -1.72921
H    -2.94319   2.09419  -0.03077
H    -3.11666   0.92871  -1.39197
H     3.69505  -0.88628  -1.15379
H     3.49421   0.86638  -1.44091
H     4.00029   0.25553   0.16071
H     1.89752  -2.60862   1.93255
H     2.93255  -2.54880   0.47456
H     3.22242  -1.41663   1.79953
