14
Generated by autodE on: 2022-05-31. E = -622.674887 Ha
C    -3.14958  -0.27829   0.83910
N    -2.57076  -1.57896   0.55780
C    -1.31202  -1.85447   0.18157
O    -0.88643  -2.99012  -0.04722
C    -0.40347  -0.71204   0.04146
C     0.42624   0.15669  -0.10021
C     1.41896   1.22052  -0.27167
F     1.23059   1.87616  -1.42683
F     1.34618   2.11947   0.72190
F     2.66797   0.73100  -0.28243
H    -3.53425  -0.24146   1.86946
H    -3.97909  -0.06475   0.14792
H    -2.39074   0.50486   0.72369
H    -3.17278  -2.39661   0.64240
