26
Generated by autodE on: 2022-07-27. E = -777.031396 Ha
C    -4.87829  -0.07708   0.51995
N    -3.49374   0.03282   0.10796
C    -2.46029  -0.24892   0.92131
O    -2.56665  -0.62910   2.09121
C    -1.13426  -0.05949   0.27159
O    -1.07051   0.36747  -0.99252
C     0.29311   0.46759  -1.38078
O     0.58957   0.84286  -2.50631
C     1.01578   0.06130  -0.23644
C     2.47203  -0.03102  -0.09374
O     3.02273  -0.40757   0.95408
N     3.15531   0.32961  -1.20657
C     4.59880   0.31433  -1.29363
N     0.08372  -0.25050   0.75080
C     0.41767  -0.71326   2.10338
H    -5.38106   0.90068   0.46086
H    -4.91681  -0.43534   1.55466
H    -5.41919  -0.78625  -0.12524
H    -3.29414   0.33946  -0.83980
H     2.61399   0.62497  -2.01711
H     4.94044  -0.35058  -2.10315
H     4.99779   1.32326  -1.48750
H     5.01106  -0.04833  -0.34489
H    -0.51438  -0.87822   2.64575
H     0.99883  -1.63807   2.02356
H     1.03038   0.05097   2.59382
