19
Generated by autodE on: 2022-06-02. E = -995.131154 Ha
C     3.37927   1.78449   0.32938
O     1.98214   1.49698   0.46767
C     1.58194   0.26486   0.10624
O     2.34192  -0.58661  -0.32008
C     0.14184   0.10481   0.29235
C    -0.67235  -0.88771  -0.11499
Cl   -0.33988  -2.32701  -0.96785
C    -2.10885  -0.42905   0.23100
C    -2.43095   0.74455  -0.72239
C    -1.64034   1.73978  -0.31162
C    -0.84151   1.15385   0.87428
O    -1.83219   0.27703   1.44739
H     3.51085   2.81837   0.66901
H     3.97719   1.10147   0.95054
H     3.69178   1.68706  -0.72068
H    -2.85535  -1.22046   0.35161
H    -3.12003   0.69347  -1.56416
H    -1.50361   2.73926  -0.72257
H    -0.42625   1.85086   1.60767
