42
Generated by autodE on: 2022-06-02. E = -1679.305135 Ha. Imaginary frequency = -346.4 cm-1
C     1.11467   4.81685  -1.63885
O     0.52879   3.83102  -0.76658
C     0.22950   2.66234  -1.31187
O     0.40752   2.34797  -2.47090
C    -0.27151   1.69242  -0.31527
N    -1.21651   0.92435  -0.38297
C    -2.02772   0.05447   0.16975
C    -2.89349   0.50317   1.21167
N    -3.65697   0.84898   2.02274
C    -2.14944  -1.29660  -0.38685
C    -1.44059  -1.63578  -1.55558
C    -1.48673  -2.93691  -2.04817
C    -2.23947  -3.91582  -1.38765
C    -2.95292  -3.58055  -0.23189
C    -2.91367  -2.27902   0.26783
C    -0.10437   1.00340   2.48236
C     0.96124  -0.05743   2.77487
O     2.15315   0.75003   2.77963
C     1.93909   1.31404   1.47015
C     1.80123   0.03313   0.62373
C     2.20254  -0.04222  -0.77724
O     2.80465   0.85505  -1.34953
O     1.83194  -1.17711  -1.37815
C     2.08423  -1.27385  -2.78549
C     1.16945  -0.82372   1.45669
Cl    0.57928  -2.40709   1.22032
C     0.50055   1.89307   1.62669
H     0.42344   5.05726  -2.45847
H     2.06107   4.43635  -2.04765
H     1.29142   5.69888  -1.01420
H    -0.85169  -0.87466  -2.06939
H    -0.93103  -3.18981  -2.95408
H    -2.27204  -4.93661  -1.77482
H    -3.54287  -4.33920   0.28723
H    -3.46134  -2.02749   1.17851
H    -1.08023   1.05435   2.95665
H     0.84460  -0.66273   3.67880
H     2.72985   2.00947   1.17591
H     1.60071  -0.44102  -3.31615
H     3.16503  -1.25789  -2.98841
H     1.65342  -2.23036  -3.10307
H     0.26484   2.95573   1.53611
