38
Generated by autodE on: 2022-05-29. E = -1058.546998 Ha
C     3.40428   2.13587  -0.87198
N     2.55343   1.19871  -0.17066
C     1.64953   1.58373   0.74056
O     1.53748   2.75078   1.13600
C     0.68501   0.48112   1.23078
C     0.33734   0.74273   2.70308
C    -0.61122   0.51413   0.36682
C    -0.48085   1.11967  -1.06776
O     0.11369   0.03702  -1.80309
C    -0.92376  -0.92102  -1.54101
C    -2.15849  -0.13422  -1.95287
F    -3.29051  -0.69823  -2.36130
C    -1.88206   1.13674  -1.65725
F    -2.65575   2.21670  -1.68607
C    -0.93723  -0.96987   0.01696
C     0.19081  -1.81495   0.67377
C     0.68996  -2.98655  -0.18320
C    -0.35931  -2.40015   1.93321
N    -0.74706  -2.86191   2.92570
N     1.25207  -0.85153   0.96365
C     2.32169  -1.30417   1.83903
H     4.23723   1.59335  -1.33765
H     2.85296   2.67745  -1.66040
H     3.81035   2.87777  -0.17003
H     2.47995   0.23264  -0.47967
H     1.23014   0.69001   3.34234
H    -0.09479   1.74630   2.80562
H    -0.39747   0.01020   3.06484
H    -1.41257   1.02029   0.91564
H     0.08402   2.05194  -1.16737
H    -0.76200  -1.86435  -2.07012
H    -1.91908  -1.30094   0.37281
H     1.41990  -3.59299   0.37003
H    -0.15024  -3.63621  -0.46715
H     1.17211  -2.59692  -1.08936
H     3.06586  -0.50485   1.95413
H     1.97318  -1.59454   2.84868
H     2.83235  -2.16968   1.39351
