25
Generated by autodE on: 2022-05-29. E = -552.380019 Ha
C    -3.90617  -0.99917  -0.14852
N    -2.74782  -0.17220   0.11401
C    -1.49525  -0.69331   0.06740
O    -1.33380  -1.90337  -0.18775
C    -0.37764   0.24622   0.28306
C    -0.58746   1.72631   0.25613
N     0.87851  -0.24978   0.41862
C     1.11102  -1.55001   1.08210
C     2.00112   0.44100   0.06053
C     3.35612   0.13105   0.63367
C     1.91004   1.38533  -0.97416
N     1.86733   2.14019  -1.87086
H    -3.84964  -1.46637  -1.14520
H    -4.80584  -0.37309  -0.10375
H    -4.00334  -1.80967   0.59248
H    -2.89079   0.81110   0.30411
H     0.23475   2.22769   0.79027
H    -0.63115   2.17194  -0.75353
H    -1.52238   1.99045   0.77353
H     0.18160  -1.91690   1.51522
H     1.84437  -1.39363   1.88204
H     1.50895  -2.27842   0.36387
H     3.72566  -0.86424   0.33350
H     4.07803   0.87514   0.27140
H     3.35642   0.17047   1.73587
