13
Generated by autodE on: 2022-05-29. E = -506.057105 Ha
F    -0.08035   2.16741  -0.68899
C     0.00577   0.96858  -0.12073
C     0.95867   0.03957  -0.18013
F     2.12074   0.02154  -0.82563
C     0.36826  -1.18426   0.54379
C    -0.78412  -1.73950  -0.33326
C    -1.73957  -0.80856  -0.27243
C    -1.15514   0.30153   0.63951
O    -0.39546  -0.50599   1.56336
H     1.09112  -1.89766   0.95467
H    -0.75027  -2.67396  -0.89177
H    -2.70882  -0.76508  -0.76736
H    -1.85685   0.97804   1.13972
