38
Generated by autodE on: 2022-05-29. E = -1058.435672 Ha. Imaginary frequency = -248.7 cm-1
C     2.93062   3.64669   1.36001
N     2.09066   2.54770   1.78996
C     1.88862   1.46944   0.99892
O     2.44150   1.39583  -0.11308
C     0.92249   0.44662   1.50267
C     0.01642   0.83343   2.64023
C    -0.90009   0.67408  -0.10486
C    -0.25522   0.69336  -1.50740
O     0.12883  -0.69212  -1.63655
C    -1.18437  -1.22711  -1.37866
C    -1.97616  -0.46838  -2.45983
F    -3.08256  -0.93986  -3.03070
C    -1.39548   0.72916  -2.54068
F    -1.74619   1.82106  -3.21688
C    -1.48694  -0.56275  -0.01938
C     0.20351  -1.85419   1.36390
C     0.39949  -3.19525   0.69916
C    -0.70607  -1.91061   2.44881
N    -1.48510  -2.11924   3.29751
N     1.15274  -0.86512   1.22460
C     2.38404  -1.27910   0.51614
H     2.58077   4.05723   0.40006
H     3.97865   3.33106   1.22673
H     2.89448   4.43844   2.11837
H     1.70958   2.56888   2.72793
H     0.47529   0.58648   3.61496
H    -0.18631   1.91039   2.61504
H    -0.95514   0.33636   2.59727
H    -1.17678   1.57989   0.42928
H     0.58249   1.37613  -1.67592
H    -1.21920  -2.31943  -1.44536
H    -2.30209  -0.87339   0.63068
H     0.72645  -3.09285  -0.34348
H     1.13102  -3.83090   1.22932
H    -0.56026  -3.73010   0.70158
H     3.19469  -0.59067   0.75551
H     2.22467  -1.29558  -0.56710
H     2.66424  -2.27635   0.86857
