50
Generated by autodE on: 2022-06-23. E = -1038.958008 Ha
C     4.90286   2.37191  -0.11931
C     3.88863   1.56726   0.25776
C     3.92233   0.79942   1.55300
C     2.70270   1.44013  -0.59642
C     1.64270   0.65528  -0.33820
C     0.42092   0.59488  -1.19921
C     0.05387  -0.84897  -1.68743
C     1.27079  -1.78071  -1.74678
C    -0.60866  -0.76865  -3.07893
C    -0.97636  -1.24279  -0.62060
C    -1.38755  -2.63325  -0.31537
C    -1.80401  -2.94455   0.99400
C    -2.19964  -4.23850   1.32834
C    -2.19507  -5.24663   0.35767
C    -1.78919  -4.94958  -0.94603
C    -1.38204  -3.65601  -1.28058
N    -1.48074  -0.26993   0.05244
C    -0.86718   1.00009  -0.36681
C    -1.83584   1.69917  -1.23217
N    -2.60455   2.24310  -1.91096
C    -0.53484   1.90399   0.82013
C    -0.25401   3.26094   0.61222
C     0.16512   4.06500   1.67374
C     0.30655   3.52002   2.95451
C     0.02135   2.16818   3.16540
C    -0.39937   1.36250   2.10265
H     4.86274   2.92996  -1.05983
H     5.79559   2.49458   0.50038
H     3.07215   1.08047   2.19721
H     3.83685  -0.28542   1.37488
H     4.85444   0.98705   2.10435
H     2.69321   2.05645  -1.50306
H     1.63050   0.03461   0.56140
H     0.54960   1.27269  -2.05275
H     1.68330  -1.98488  -0.74882
H     1.01231  -2.74173  -2.21167
H     2.06275  -1.31629  -2.35315
H    -0.93863  -1.75616  -3.42938
H     0.12251  -0.38073  -3.80469
H    -1.48087  -0.10000  -3.08233
H    -1.80081  -2.15833   1.74988
H    -2.50963  -4.46357   2.35142
H    -2.50498  -6.26136   0.61830
H    -1.78808  -5.72893  -1.71140
H    -1.08103  -3.44770  -2.30570
H    -0.34976   3.69078  -0.38768
H     0.38478   5.12083   1.49926
H     0.63664   4.14823   3.78510
H     0.12715   1.73453   4.16260
H    -0.61175   0.30572   2.26581
