50
Generated by autodE on: 2022-06-23. E = -1038.882820 Ha. Imaginary frequency = -353.4 cm-1
C     3.89531   3.31300   0.73784
C     3.50457   2.02183   0.62779
C     3.99614   0.97525   1.59471
C     2.56027   1.63367  -0.40812
C     2.05659   0.37808  -0.58250
C     1.07032   0.03211  -1.55739
C     0.56432  -1.25666  -1.75421
C     1.31655  -2.47008  -1.25118
C    -0.27678  -1.50389  -2.98836
C    -1.12240  -1.28961  -0.29206
C    -1.69592  -2.59930  -0.06591
C    -1.06846  -3.50561   0.80852
C    -1.61577  -4.77457   0.99585
C    -2.76369  -5.15906   0.29399
C    -3.37685  -4.26392  -0.58980
C    -2.85338  -2.98394  -0.77002
N    -1.43181  -0.14251  -0.02642
C    -1.13727   1.14277  -0.28221
C    -1.64301   1.66838  -1.49733
N    -2.04288   2.09773  -2.50876
C    -0.50740   2.00009   0.70744
C    -0.28785   3.36819   0.44077
C     0.38045   4.17214   1.36199
C     0.85053   3.63406   2.56534
C     0.64140   2.27596   2.83700
C    -0.02535   1.46506   1.92114
H     3.52290   4.07655   0.04866
H     4.58956   3.63524   1.51855
H     3.15523   0.53215   2.15321
H     4.49911   0.14734   1.06843
H     4.70244   1.40433   2.31927
H     2.21993   2.43138  -1.07711
H     2.38895  -0.41315   0.09422
H     0.73567   0.82659  -2.22893
H     1.69359  -2.35273  -0.22626
H     0.68533  -3.36900  -1.28010
H     2.18424  -2.66170  -1.90771
H    -0.97902  -2.33993  -2.84711
H     0.37616  -1.77983  -3.83676
H    -0.84906  -0.61041  -3.27784
H    -0.16560  -3.20454   1.34152
H    -1.13792  -5.47113   1.68816
H    -3.18063  -6.15872   0.43504
H    -4.27395  -4.56148  -1.13731
H    -3.33055  -2.27654  -1.45048
H    -0.64167   3.79982  -0.49800
H     0.54258   5.22839   1.13469
H     1.37548   4.26576   3.28489
H     1.00779   1.84271   3.77067
H    -0.17632   0.40619   2.14013
