54
Generated by autodE on: 2022-06-25. E = -1451.379483 Ha
C    -0.54286   5.13091  -1.11063
O    -0.03599   3.84516  -0.73145
C    -0.94512   2.96691  -0.28535
O    -2.13865   3.20623  -0.19601
N    -0.37699   1.78439   0.09630
N     1.02496   1.59023   0.07865
C     1.18602   0.16095  -0.16833
C     0.99448  -0.14637  -1.66972
C     1.38108   0.91683  -2.64682
O     0.57690  -1.24067  -2.00337
C     2.57904  -0.33226   0.21310
C     2.97337  -1.64419  -0.09656
C     4.23960  -2.10912   0.26230
C     5.13954  -1.26873   0.92329
C     4.76432   0.04473   1.21357
C     3.49637   0.51191   0.85763
C     0.01776  -0.43945   0.71723
O     0.45756  -0.23661   2.03528
C    -0.16127  -0.94503   3.10959
C    -0.36337  -1.90216   0.47461
O     0.36285  -2.77276   0.93207
C    -1.63938  -2.26508  -0.19926
C    -1.92295  -3.73323  -0.22414
C    -2.40778  -1.31838  -0.80493
C    -3.64640  -1.57146  -1.60525
C    -1.90761   0.07483  -0.85005
O    -2.08584   0.78624  -1.82087
C    -1.13480   0.57073   0.39412
O    -1.96340   0.70498   1.51413
C    -3.38095   0.79492   1.35470
H     0.32991   5.71363  -1.42792
H    -1.25649   5.03755  -1.94194
H    -1.03511   5.62151  -0.25854
H     1.35650   1.78570   1.02568
H     0.67094   1.75500  -2.57002
H     1.36523   0.50687  -3.66433
H     2.37487   1.31879  -2.39982
H     2.29311  -2.30830  -0.62611
H     4.52385  -3.13484   0.01689
H     6.13102  -1.63279   1.20212
H     5.46107   0.71800   1.71791
H     3.24474   1.54687   1.08727
H    -0.09722  -0.29388   3.99257
H    -1.21850  -1.16375   2.90981
H     0.37327  -1.88629   3.31004
H    -2.91032  -3.96597  -0.63654
H    -1.16007  -4.24786  -0.83204
H    -1.84661  -4.15224   0.79095
H    -3.39985  -1.56768  -2.68080
H    -4.11421  -2.53231  -1.36318
H    -4.37660  -0.76448  -1.44325
H    -3.76412   1.21466   2.29455
H    -3.83085  -0.19902   1.20306
H    -3.65516   1.46641   0.53025
