26
Generated by autodE on: 2022-06-25. E = -689.460859 Ha
C    -3.22470   0.34563   1.00762
O    -1.90441   0.83530   1.26436
C    -0.82865   0.37889   0.62377
C    -0.73529  -0.60898  -0.31070
O    -1.80501  -1.35324  -0.71947
C    -2.29027  -1.07906  -2.03796
C     0.57953  -0.97872  -0.87762
O     0.65210  -1.90338  -1.68522
C     1.80566  -0.23607  -0.45594
C     3.10542  -0.62905  -1.08364
C     1.72520   0.74562   0.47620
C     2.92911   1.50552   0.94046
C     0.41348   1.10058   1.07572
O     0.31137   1.97549   1.92469
H    -3.87944   0.91837   1.67660
H    -3.51683   0.52887  -0.03619
H    -3.30128  -0.72477   1.23781
H    -3.13684  -1.75755  -2.20748
H    -1.51641  -1.26410  -2.79753
H    -2.63773  -0.03528  -2.11458
H     2.96517  -1.43301  -1.81551
H     3.57190   0.23443  -1.58598
H     3.82090  -0.96865  -0.31624
H     3.41708   2.01649   0.09411
H     3.67973   0.82212   1.37054
H     2.65935   2.25318   1.69556
