54
Generated by autodE on: 2022-06-25. E = -1451.337227 Ha. Imaginary frequency = -376.5 cm-1
C    -0.12529   5.10089  -1.22401
O     0.19071   3.72408  -0.96911
C    -0.84698   2.87514  -0.91859
O    -2.00546   3.20602  -1.06691
N    -0.44899   1.55888  -0.71695
N     0.85406   1.36316  -0.46198
C     1.35287   0.12924  -0.65030
C     0.91335  -0.60431  -1.88962
C     0.34726   0.17058  -3.05207
O     1.05817  -1.81568  -1.98139
C     2.46802  -0.31746   0.17854
C     3.18153  -1.50660  -0.10456
C     4.20167  -1.94245   0.73665
C     4.54812  -1.20772   1.87486
C     3.86512  -0.02235   2.16297
C     2.83704   0.41633   1.33384
C    -0.60178  -0.41652   1.06192
O     0.12855  -0.00266   2.12386
C     0.44173  -0.88733   3.20323
C    -0.56284  -1.76099   0.54144
O     0.20542  -2.62831   0.98937
C    -1.50179  -2.10587  -0.58509
C    -1.39921  -3.48583  -1.15372
C    -2.40925  -1.21487  -1.06227
C    -3.35239  -1.54709  -2.17973
C    -2.57742   0.08949  -0.38815
O    -3.59018   0.75970  -0.51928
C    -1.46565   0.58777   0.51900
O    -1.81225   1.62974   1.35197
C    -2.65016   1.27513   2.45428
H     0.83522   5.62809  -1.25095
H    -0.64219   5.20262  -2.18888
H    -0.75939   5.50410  -0.42165
H     1.29778   1.98548   0.21802
H    -0.75177   0.10598  -3.01759
H     0.68695  -0.32614  -3.97205
H     0.63124   1.22968  -3.05756
H     2.93008  -2.09037  -0.98475
H     4.73343  -2.86605   0.49791
H     5.34781  -1.55558   2.53263
H     4.12466   0.56085   3.04887
H     2.31102   1.32561   1.61816
H     0.73825  -0.23961   4.03913
H    -0.44351  -1.47412   3.49240
H     1.26553  -1.56436   2.94827
H    -2.35081  -4.02843  -1.02477
H    -1.20217  -3.44411  -2.23639
H    -0.59951  -4.05454  -0.66664
H    -2.79975  -1.91083  -3.06020
H    -4.04776  -2.35227  -1.88707
H    -3.94701  -0.67168  -2.46896
H    -2.82905   2.20257   3.01420
H    -2.15942   0.54200   3.11298
H    -3.61374   0.87106   2.10712
