29
Generated by autodE on: 2022-10-23. E = -745.875779 Ha
C     4.82605  -1.82416  -0.00704
O     3.39981  -1.75413  -0.10727
C     2.84196  -0.54778   0.10403
O     3.49200   0.45934   0.37088
C     1.40129  -0.58750  -0.01979
N     0.76136   0.55994   0.15447
C    -0.52799   0.92308   0.10914
C    -0.71326   2.35314   0.34965
C    -2.10401   2.92583   0.39707
O     0.27784   3.08112   0.52552
C    -1.59806  -0.06157  -0.13016
C    -2.55601   0.14722  -1.13927
C    -3.57685  -0.78125  -1.35299
C    -3.65597  -1.93461  -0.56670
C    -2.70701  -2.15454   0.43753
C    -1.68675  -1.22777   0.65496
H     5.09315  -2.86977  -0.20072
H     5.16094  -1.52955   0.99878
H     5.30184  -1.16927  -0.75228
H     0.86136  -1.50161  -0.25308
H     1.36986   1.37537   0.35654
H    -2.44824   3.14356  -0.62769
H    -2.08085   3.87005   0.95772
H    -2.82652   2.23154   0.84723
H    -2.49262   1.03762  -1.76703
H    -4.31069  -0.60506  -2.14291
H    -4.45426  -2.66100  -0.73574
H    -2.76501  -3.05047   1.06008
H    -0.96012  -1.40124   1.45150
