45
Generated by autodE on: 2022-06-29. E = -1217.461387 Ha
C     3.78223  -2.85106   0.99496
N     2.56254  -2.42554   0.33855
C     2.22283  -1.13564   0.24552
O     2.93458  -0.20766   0.64508
C     0.87475  -0.84525  -0.42411
C     1.09208  -0.46494  -1.94261
C     2.48353  -0.38175  -2.48797
O     0.11393  -0.43736  -2.67116
N     0.02042  -2.03609  -0.48038
C    -1.16178  -1.74014  -0.10408
C    -1.38182  -0.35564   0.44068
C    -2.49234   0.43251  -0.27911
O    -3.37501   1.02499   0.34861
N    -2.42475   0.42629  -1.61747
C    -3.31302   1.24991  -2.41556
C    -1.62858  -0.33536   2.00614
C    -0.76620  -1.41034   2.63695
C     0.48670  -0.94169   2.57836
C     0.37827   0.41867   1.91738
O    -0.91626   0.85933   2.35761
C     0.07226   0.25138   0.35531
C     0.21833   1.63305  -0.28530
O     1.02913   1.82160  -1.20204
N    -0.54556   2.61565   0.20621
C    -0.51329   3.95695  -0.34393
H     3.90655  -3.93120   0.85144
H     4.65367  -2.33107   0.57014
H     3.75085  -2.63652   2.07630
H     1.87467  -3.10860   0.03463
H     2.88461  -1.40809  -2.54250
H     3.14266   0.20046  -1.83543
H     2.45496   0.04259  -3.49947
H    -1.96682  -2.48389  -0.11806
H    -1.59787   0.01801  -2.06558
H    -3.14936   2.32288  -2.21797
H    -3.12141   1.05209  -3.47743
H    -4.36568   1.02001  -2.19435
H    -2.68257  -0.27315   2.28423
H    -1.11911  -2.38380   2.97592
H     1.41390  -1.42470   2.88041
H     1.15346   1.15582   2.13795
H    -1.14319   2.40122   1.00115
H    -0.68489   3.93313  -1.43091
H     0.45684   4.44666  -0.16163
H    -1.30516   4.55034   0.12879
