27
Generated by autodE on: 2022-06-29. E = -723.764515 Ha
C     3.18724  -1.02234  -0.68102
N     2.24331  -1.80966   0.09601
C     1.02205  -1.44541   0.52344
O     0.25271  -2.27802   1.04424
C     0.61252  -0.02362   0.39663
C    -0.60833   0.48284   0.12448
C    -1.90053  -0.08952  -0.32549
O    -2.66585   0.61690  -1.00441
N    -2.18343  -1.34832   0.04079
C    -3.39885  -2.00474  -0.39180
C    -0.42305   2.01732   0.16741
C     0.43691   2.41886  -1.04719
C     1.65329   1.93910  -0.77632
C     1.50722   1.24379   0.59711
O     0.54814   2.10678   1.22461
H     3.76778  -0.32363  -0.05946
H     2.67789  -0.46196  -1.47587
H     3.89331  -1.71230  -1.15969
H     2.46230  -2.79091   0.25108
H    -1.45647  -1.86411   0.54882
H    -3.47091  -2.98255   0.10015
H    -3.41514  -2.15679  -1.48424
H    -4.28445  -1.40710  -0.12533
H    -1.32500   2.60260   0.36984
H     0.06548   2.93418  -1.93183
H     2.56241   1.95839  -1.37489
H     2.40815   1.11438   1.20430
