45
Generated by autodE on: 2022-06-29. E = -1217.361180 Ha. Imaginary frequency = -305.0 cm-1
C     3.74403  -2.77196   1.03478
N     2.69440  -2.39282   0.11033
C     2.46558  -1.10539  -0.21426
O     3.20913  -0.18071   0.13687
C     1.24505  -0.84537  -1.03528
C     1.17628   0.11042  -2.16460
C     2.38539   0.94948  -2.46821
O     0.15473   0.17480  -2.84288
N     0.20691  -1.64646  -0.89852
C    -0.90640  -1.85776  -0.50641
C    -1.55439  -0.17997   0.66867
C    -2.84363  -0.13795  -0.11227
O    -3.75690  -0.92951   0.17823
N    -2.93679   0.74825  -1.10866
C    -4.13396   0.84561  -1.91618
C    -1.61500  -0.85513   2.08445
C    -0.37375  -1.73935   2.24628
C     0.64590  -0.88001   2.35791
C     0.00408   0.50412   2.26255
O    -1.26175   0.26827   2.91038
C    -0.49535   0.72252   0.80085
C    -0.09108   1.88560   0.00199
O    -0.74410   2.32137  -0.97282
N     1.02093   2.54316   0.41156
C     1.48566   3.73102  -0.27759
H     3.46287  -2.56081   2.08120
H     4.66594  -2.21862   0.80934
H     3.93899  -3.84696   0.93436
H     2.02877  -3.10027  -0.18278
H     3.22919   0.29496  -2.74185
H     2.70324   1.51978  -1.58791
H     2.15051   1.62113  -3.30325
H    -1.66205  -2.63623  -0.64159
H    -2.14526   1.39895  -1.24216
H    -3.98214   1.61410  -2.68460
H    -4.36050  -0.11166  -2.41313
H    -5.01289   1.12192  -1.31033
H    -2.58926  -1.27711   2.34207
H    -0.36387  -2.82782   2.20036
H     1.71435  -1.06661   2.43939
H     0.54063   1.34386   2.71367
H     1.66490   2.07123   1.03685
H     1.62533   3.55308  -1.35495
H     2.44401   4.03787   0.15899
H     0.76624   4.55755  -0.16488
