28
Generated by autodE on: 2022-06-16. E = -591.701993 Ha
C     2.99171   0.40396  -0.21079
C     1.61847   0.85366   0.19840
O     1.43973   1.54198   1.19075
C     0.42437   0.44567  -0.68300
C     0.65670   0.90952  -2.12318
N    -0.82215   1.07246  -0.17938
N    -1.48596   0.09210   0.65375
C    -1.20200   0.09696   1.96046
N    -1.07075   0.13498   3.12232
C    -1.30832  -1.18717  -0.07294
C    -2.32533  -1.31110  -1.19657
C     0.17693  -1.10110  -0.50895
C     0.56206  -1.98750  -1.68413
H     2.99142  -0.61937  -0.61161
H     3.68034   0.48705   0.64033
H     3.34701   1.06832  -1.01651
H     1.55593   0.45589  -2.55991
H     0.77681   2.00385  -2.14930
H    -0.20769   0.64318  -2.74589
H    -0.59142   1.87463   0.41107
H    -1.45106  -2.00409   0.64666
H    -3.34462  -1.27202  -0.78463
H    -2.21543  -0.50568  -1.93633
H    -2.20306  -2.27411  -1.71217
H     0.76229  -1.42756   0.36557
H     0.02434  -1.72238  -2.60437
H     0.33391  -3.03876  -1.44881
H     1.64041  -1.92030  -1.89024
