16
Generated by autodE on: 2022-06-16. E = -434.368387 Ha
C    -3.19215   0.03150  -0.30433
C    -1.74237   0.11038  -0.66765
O    -1.35531   0.32786  -1.81274
C    -0.73528  -0.08392   0.41436
C    -1.01135  -0.35070   1.84574
N     0.50151   0.00362  -0.00745
N     1.56974  -0.13103   0.76238
C     2.72928  -0.00630   0.14964
N     3.81889   0.08395  -0.28031
H    -3.80471   0.18664  -1.20088
H    -3.42038  -0.94967   0.14281
H    -3.43479   0.79427   0.45347
H    -0.55959   0.43928   2.46983
H    -0.53902  -1.30020   2.15024
H    -2.08505  -0.40075   2.05266
H     0.59617   0.19347  -1.02157
