16
Generated by autodE on: 2022-07-27. E = -434.359858 Ha
C     1.48481  -0.17202   1.60769
C     1.71869  -0.03927   0.13485
O     2.84993  -0.00439  -0.33856
C     0.58816   0.05325  -0.83577
C     0.92764   0.15841  -2.28340
N    -0.68185   0.05089  -0.50021
N    -1.20693  -0.02966   0.71844
C    -2.52053  -0.01383   0.76512
N    -3.68399  -0.00935   0.93306
H     2.45770  -0.23697   2.11207
H     0.87637  -1.06343   1.82343
H     0.90975   0.68696   1.98559
H     1.53881  -0.70411  -2.59146
H     1.53147   1.06138  -2.46576
H     0.02445   0.19923  -2.90745
H    -1.33607   0.12192  -1.29431
