34
Generated by autodE on: 2022-06-15. E = -840.584977 Ha
C    -3.90730  -2.51273   0.87659
N    -3.21105  -1.52276   0.08367
C    -1.88287  -1.28815   0.28244
O    -1.17370  -2.06257   0.96449
C    -1.34325  -0.08672  -0.32717
O    -0.00057   0.18127  -0.11687
C     0.98945  -0.62667  -0.33117
C     0.78985  -1.87368  -1.09184
C     2.27281  -0.14205   0.14353
C     3.45029  -0.89680  -0.05343
C     4.67676  -0.41632   0.39909
C     4.75190   0.81853   1.05217
C     3.58941   1.57304   1.26071
C     2.35946   1.09810   0.82092
C    -2.10848   1.08936  -0.68576
O    -3.35996   1.06645  -0.81332
N    -1.41759   2.23664  -0.92072
C    -2.09142   3.47168  -1.25720
H    -4.93431  -2.61448   0.50144
H    -3.95471  -2.24927   1.94938
H    -3.41207  -3.49173   0.79861
H    -3.72424  -0.72475  -0.29840
H    -0.06047  -1.72563  -1.78017
H     0.50381  -2.70153  -0.42380
H     1.69348  -2.14765  -1.64798
H     3.40833  -1.86187  -0.55807
H     5.58024  -1.00878   0.24137
H     5.71567   1.19181   1.40560
H     3.64609   2.53342   1.77731
H     1.45316   1.67757   0.99839
H    -0.41205   2.23885  -0.79906
H    -1.33717   4.24881  -1.43386
H    -2.76065   3.81289  -0.44922
H    -2.70090   3.36316  -2.16894
