81
Generated by autodE on: 2022-06-15. E = -1922.446647 Ha. Imaginary frequency = -312.3 cm-1
C     1.06220   6.10623   7.76547
N     1.03716   7.24088   6.86550
C    -0.09241   7.74958   6.35937
O    -1.20847   7.23257   6.47014
C     0.10458   8.99956   5.47531
F     1.26304   9.67799   5.91786
C     0.38538   8.49411   4.04968
C     0.67232   9.57006   2.99629
C    -0.49891  10.01720   2.10825
C    -1.37098  11.17970   2.58724
C    -2.55151  10.89482   3.58671
C    -3.34667  12.21418   3.70629
C    -2.65524  13.39943   4.01089
C    -3.32249  14.62032   4.11153
C    -4.70690  14.68400   3.92145
C    -5.40870  13.51115   3.63684
C    -4.73372  12.28973   3.52806
C    -3.39598   9.74900   3.00329
C    -3.53496   8.51342   3.64324
C    -4.28184   7.48024   3.06522
C    -4.89013   7.65994   1.82279
C    -4.73742   8.88320   1.15897
C    -3.99738   9.91203   1.74184
C    -1.96273  10.49774   4.90414
C    -1.04752   9.91515   5.50913
C    -1.25008  10.55999   7.79559
C    -0.82838   9.48988   8.73877
O     0.37443   9.25962   8.98833
N    -1.81203   8.77963   9.33228
C    -1.54470   7.58941  10.11191
C    -0.41432  11.76953   7.56612
O    -0.80901  12.75894   6.92398
N     0.85044  11.70499   8.04067
C     1.86036  12.61889   7.55380
O    -2.59320  10.54414   7.66499
C    -3.50451  11.06368   6.87002
C    -3.72503  12.53633   6.87698
C    -4.60902  10.13508   6.59692
C    -5.85246  10.59594   6.11802
C    -6.87650   9.69654   5.82144
C    -6.69049   8.32422   6.01398
C    -5.46622   7.85490   6.50501
C    -4.43412   8.74586   6.78163
H     0.21316   5.44730   7.54592
H     0.99801   6.43048   8.81632
H     1.99577   5.54398   7.62541
H     1.85925   7.83523   6.82009
H     1.25480   7.82561   4.13995
H    -0.46707   7.86645   3.74821
H     1.44038   9.15015   2.32843
H     1.14439  10.44426   3.47498
H    -0.06129  10.35605   1.15518
H    -1.12207   9.14498   1.85062
H    -0.72054  11.94702   3.02924
H    -1.83744  11.64398   1.70532
H    -1.58381  13.36692   4.21045
H    -2.75912  15.52458   4.35425
H    -5.23329  15.63791   4.00292
H    -6.49258  13.53835   3.50078
H    -5.30754  11.38973   3.31663
H    -3.05044   8.34414   4.60128
H    -4.38291   6.53116   3.59703
H    -5.47360   6.85511   1.36942
H    -5.19878   9.03794   0.18052
H    -3.89251  10.85816   1.20838
H    -2.76625   8.96353   9.04694
H    -2.41531   7.37355  10.74498
H    -1.35142   6.71364   9.47049
H    -0.66945   7.74573  10.75649
H     1.12717  10.79443   8.41597
H     1.56362  13.66463   7.72045
H     2.79883  12.43248   8.09190
H     2.04399  12.48835   6.47212
H    -4.38439  12.86287   6.07181
H    -2.77693  13.07578   6.84605
H    -4.22579  12.76971   7.83642
H    -6.02531  11.66060   5.97522
H    -7.82955  10.07284   5.44308
H    -7.49412   7.62263   5.77921
H    -5.30718   6.78395   6.64886
H    -3.46832   8.36376   7.10652
