23
Generated by autodE on: 2022-06-18. E = -351.521383 Ha
C     3.64156   0.99262   0.22291
C     2.57946   0.16833   0.08764
C     2.75887  -1.31510  -0.11073
C     1.22375   0.71256   0.13182
C     0.07862  -0.00412   0.00575
C    -1.24237   0.58865   0.05528
C    -2.43182  -0.05284  -0.06829
C    -3.72630   0.70659   0.00594
C    -2.58029  -1.53210  -0.28476
H     4.66675   0.61317   0.19324
H     3.50743   2.06917   0.36693
H     2.30235  -1.64749  -1.05786
H     3.82316  -1.58913  -0.12541
H     2.26524  -1.88601   0.69325
H     1.14797   1.79661   0.27965
H     0.14557  -1.08537  -0.14212
H    -1.26783   1.67422   0.20941
H    -3.56882   1.78310   0.16774
H    -4.36110   0.31945   0.82323
H    -4.31106   0.57455  -0.92224
H    -1.62446  -2.06816  -0.34592
H    -3.14361  -1.72721  -1.21437
H    -3.17419  -1.97991   0.53164
