19
Generated by autodE on: 2022-06-18. E = -477.529307 Ha
C    -3.00640   1.02019   0.23740
C    -2.52817  -0.34567  -0.18704
O    -3.27663  -1.26837  -0.51944
C    -1.11688  -0.48796  -0.17188
N     0.06302  -0.58967  -0.18141
C     1.36127  -0.47985  -0.11652
C     2.25546  -1.62864  -0.47683
C     1.83563   0.83734   0.32934
C     3.32796   1.01843   0.42061
O     1.04668   1.74380   0.61257
H    -3.68271   0.90409   1.09937
H    -3.58343   1.46268  -0.59049
H    -2.17505   1.68729   0.50562
H     2.89215  -1.91776   0.37513
H     2.92527  -1.36300  -1.31091
H     1.66057  -2.50198  -0.77594
H     3.79846   0.84209  -0.56024
H     3.55496   2.03648   0.76229
H     3.76298   0.28614   1.11985
