42
Generated by autodE on: 2022-06-18. E = -829.039365 Ha. Imaginary frequency = -402.0 cm-1
C     4.66755   2.16997   0.16646
C     3.89020   1.11681  -0.16495
C     4.29169   0.15528  -1.25344
C     2.62014   0.89831   0.52859
C     1.75532  -0.11042   0.27936
C     0.46384  -0.26628   0.96420
C    -0.60097   0.83378  -0.48231
C    -0.22904   2.25780  -0.50897
C     0.41728   2.76416  -1.76064
O    -0.39515   2.91616   0.50847
N    -1.44051   0.13277  -1.01822
C    -2.03108  -1.05086  -0.83939
C    -1.94663  -2.08375  -1.91697
C    -3.01366  -1.18312   0.22572
C    -3.36651   0.02259   1.06528
O    -3.58738  -2.26942   0.40676
C    -0.17421  -1.51027   1.10624
C    -0.98092  -1.78445   2.34420
C     0.29459  -2.73283   0.36702
H     4.36876   2.86741   0.95512
H     5.61697   2.36136  -0.34136
H     5.26204   0.43011  -1.69032
H     3.54057   0.13640  -2.06078
H     4.36422  -0.87516  -0.86763
H     2.35864   1.63633   1.29579
H     1.99719  -0.84727  -0.49046
H     0.26964   0.46755   1.75541
H     1.38129   2.24410  -1.89142
H     0.58579   3.84634  -1.68006
H    -0.20485   2.52813  -2.63795
H    -0.97590  -2.04344  -2.43080
H    -2.08139  -3.07824  -1.47173
H    -2.74359  -1.95005  -2.66980
H    -4.06925   0.65405   0.49435
H    -2.50388   0.65123   1.32053
H    -3.86787  -0.31357   1.98200
H    -0.34131  -2.31811   3.07338
H    -1.84307  -2.44145   2.15105
H    -1.33228  -0.86185   2.82648
H     1.12692  -3.21277   0.91707
H     0.65338  -2.51518  -0.64775
H    -0.51079  -3.47948   0.29600
