49
Generated by autodE on: 2022-06-21. E = -983.044430 Ha
C    -1.32924   3.06575  -1.44831
C    -1.09275   2.93557   0.02856
O    -0.54328   3.81639   0.67328
C    -1.61445   1.68760   0.75513
C    -0.61861   1.13664   1.78645
C    -0.01458  -0.11942   1.12218
C     0.52577  -1.11504   2.14482
C     1.04049   0.31296   0.12621
C     2.23369  -0.27534  -0.08643
C     3.18505   0.19981  -1.07728
C     4.39280  -0.33918  -1.37131
C     4.96954  -1.55261  -0.69767
C     5.26622   0.26454  -2.43531
C    -1.29389  -0.66230   0.31952
C    -0.76882  -1.51284  -0.85052
C    -0.84253  -0.95446  -2.24288
O    -0.25797  -2.59922  -0.63045
C    -2.21147  -1.45200   1.30396
C    -2.29099  -2.95152   1.30215
O    -2.89857  -0.79901   2.07277
N    -1.94613   0.56342  -0.11706
C    -3.32569   0.48265  -0.56182
H    -2.41234   3.15584  -1.63460
H    -0.81911   3.95825  -1.83316
H    -0.99290   2.16164  -1.97462
H    -2.52057   2.05295   1.27899
H    -1.14977   0.85147   2.70158
H     0.15570   1.86867   2.04995
H     0.85127  -2.05032   1.67007
H    -0.23212  -1.35814   2.90287
H     1.38986  -0.67586   2.66512
H     0.79258   1.18616  -0.48587
H     2.50733  -1.15731   0.49708
H     2.87384   1.08700  -1.64194
H     5.94194  -1.30688  -0.23560
H     4.32064  -1.97877   0.07821
H     5.17575  -2.34079  -1.44320
H     5.48399  -0.47350  -3.22811
H     4.80474   1.14817  -2.90011
H     6.24489   0.56068  -2.01685
H    -1.89152  -0.82955  -2.55189
H    -0.33267  -1.64072  -2.93139
H    -0.37918   0.04056  -2.28428
H    -2.61238  -3.31110   0.31242
H    -1.30913  -3.40208   1.49793
H    -3.01457  -3.26417   2.06646
H    -3.55042   1.28361  -1.28272
H    -3.50770  -0.47546  -1.06910
H    -4.05084   0.56157   0.27049
