23
Generated by autodE on: 2022-06-21. E = -351.521382 Ha
C     3.59675  -0.88185   0.76453
C     2.54624  -0.45256   0.03108
C     2.72060   0.00411  -1.39483
C     1.20872  -0.42380   0.61959
C     0.07730  -0.01347  -0.00679
C    -1.22611  -0.00324   0.62544
C    -2.40033   0.39165   0.07140
C    -2.54828   0.89828  -1.33527
C    -3.67702   0.34655   0.86257
H     3.46681  -1.21263   1.79963
H     4.60813  -0.91338   0.34979
H     3.77078  -0.06884  -1.71077
H     2.39302   1.04958  -1.52016
H     2.10854  -0.60147  -2.08378
H     1.13551  -0.76709   1.65858
H     0.14229   0.33111  -1.04234
H    -1.25096  -0.35402   1.66429
H    -3.27361   0.27733  -1.89013
H    -2.96355   1.92168  -1.33053
H    -1.60821   0.91375  -1.90166
H    -3.52045  -0.02978   1.88418
H    -4.42436  -0.29650   0.36378
H    -4.13348   1.35077   0.92634
