26
Generated by autodE on: 2022-07-27. E = -631.477524 Ha
C     1.36198   2.50823   2.40670
C     0.98892   1.51585   1.33733
O     1.76519   1.20811   0.43546
C    -0.33933   0.91460   1.51359
N    -0.79501  -0.14895   0.86304
C    -1.87446  -0.90457   1.54759
C    -0.36099  -0.52406  -0.39193
C    -0.03926   0.50749  -1.38742
C    -0.67191   1.88420  -1.29766
O     0.64040   0.24980  -2.38270
C    -0.28736  -1.95894  -0.68626
C    -0.06309  -2.43427  -2.10158
O    -0.40148  -2.79580   0.21802
H     0.66839   3.36501   2.35723
H     2.39129   2.85465   2.25102
H     1.25755   2.06712   3.41055
H    -0.92128   1.22727   2.38065
H    -2.50588  -0.17393   2.06821
H    -1.43826  -1.59776   2.27486
H    -2.46799  -1.45187   0.81141
H     0.11812   2.64192  -1.18781
H    -1.16065   2.06079  -2.26818
H    -1.40706   2.01661  -0.49471
H    -0.66818  -1.88038  -2.83203
H    -0.30262  -3.50588  -2.13689
H     0.99058  -2.29263  -2.38443
