31
Generated by autodE on: 2022-06-12. E = -764.073000 Ha
C     2.66156   1.32927   2.44981
O     2.53437   1.12263   1.04049
C     1.64896   0.18048   0.65106
O     0.97922  -0.44767   1.46211
C     1.66084  -0.01701  -0.79726
C     2.79051   0.51254  -1.62795
N     0.72252  -0.80551  -1.36405
C     1.06957  -1.45027  -2.64647
C    -0.54699  -0.97982  -0.88008
C    -1.24803  -2.14981  -1.24643
N    -1.88311  -3.09677  -1.51227
C    -1.26526   0.00109  -0.05053
C    -2.23693  -0.43615   0.86803
C    -2.98742   0.48030   1.60929
C    -2.78087   1.85174   1.45139
C    -1.81597   2.29879   0.53734
C    -1.06344   1.38952  -0.20000
H     1.69878   1.63482   2.88583
H     3.40222   2.12833   2.57312
H     3.00881   0.41287   2.95000
H     3.22157   1.39542  -1.14346
H     2.45160   0.80518  -2.63207
H     3.60275  -0.22588  -1.75293
H     0.37574  -2.27381  -2.83789
H     0.97955  -0.71510  -3.45789
H     2.09365  -1.83507  -2.60460
H    -2.40482  -1.50646   1.00452
H    -3.73368   0.11476   2.31865
H    -3.36217   2.56994   2.03392
H    -1.64969   3.36970   0.39815
H    -0.31229   1.76363  -0.89826
