41
Generated by autodE on: 2022-06-19. E = -1015.378646 Ha
C    -3.40929   2.66261   0.01506
O    -2.80935   1.45251  -0.48067
C    -1.98813   0.80409   0.33797
O    -1.72239   1.17849   1.46036
C    -1.32826  -0.40297  -0.34981
C    -2.27225  -0.93263  -1.44121
C    -1.80548  -0.90841  -2.86131
O    -3.36189  -1.36610  -1.10832
N    -0.06780   0.14161  -0.87841
C     0.89512  -0.15438  -0.07673
C     2.28382   0.26802  -0.32719
C     2.57700   1.12835  -1.40336
C     3.88772   1.52469  -1.65669
C     4.93020   1.06815  -0.84015
C     4.65123   0.21459   0.23062
C     3.33768  -0.18270   0.48797
C     0.46796  -0.97153   1.12968
C     0.48026  -0.18174   2.42322
O     1.15367   0.80837   2.61705
C    -0.90470  -1.54059   0.65761
C    -1.92400  -1.85411   1.75242
C    -0.61679  -2.83633  -0.12518
H    -4.01411   2.44769   0.90705
H    -2.62973   3.39636   0.26396
H    -4.04319   3.03659  -0.79645
H    -0.84203  -1.43330  -2.95199
H    -1.62538   0.13477  -3.16477
H    -2.55940  -1.37015  -3.51173
H     1.76135   1.48303  -2.03398
H     4.10074   2.19449  -2.49294
H     5.95830   1.37998  -1.03867
H     5.45993  -0.14413   0.87114
H     3.13991  -0.84674   1.32981
H     1.16125  -1.80779   1.33132
H    -0.12664  -0.62505   3.24367
H    -1.52276  -2.62916   2.42374
H    -2.84224  -2.24707   1.29377
H    -2.19451  -0.98147   2.35723
H    -0.17924  -3.57865   0.55857
H     0.09564  -2.67361  -0.94742
H    -1.53763  -3.26733  -0.54225
