41
Generated by autodE on: 2022-06-19. E = -1015.310098 Ha. Imaginary frequency = -380.0 cm-1
C    -3.74287   2.16999   0.79338
O    -3.21968   1.11359  -0.02088
C    -1.88842   1.04676  -0.12710
O    -1.14207   1.86278   0.39992
C    -1.40106  -0.09437  -0.91987
C    -2.21824  -0.97737  -1.74854
C    -1.50291  -1.70768  -2.86081
O    -3.41795  -1.16793  -1.53394
N    -0.06418  -0.01889  -1.16908
C     0.93948  -0.12379  -0.49701
C     2.30762   0.31952  -0.47069
C     2.57418   1.67140  -0.77371
C     3.88330   2.14245  -0.72131
C     4.92678   1.27421  -0.37881
C     4.66278  -0.06669  -0.07699
C     3.35498  -0.54584  -0.10479
C     0.31636  -1.15180   1.28710
C     0.68004  -0.12295   2.26149
O     1.81275   0.01817   2.70907
C    -1.01358  -1.57786   1.08672
C    -2.18508  -1.10051   1.89720
C    -1.20771  -2.91857   0.43773
H    -3.38246   2.07598   1.82816
H    -3.44947   3.15133   0.39346
H    -4.83312   2.05922   0.76257
H    -0.65657  -2.29019  -2.46541
H    -1.08937  -0.98931  -3.58638
H    -2.20930  -2.37983  -3.36459
H     1.74683   2.33401  -1.03268
H     4.09252   3.18929  -0.95073
H     5.95304   1.64658  -0.34290
H     5.48058  -0.73884   0.19001
H     3.14216  -1.58696   0.14003
H     1.09935  -1.89289   1.09760
H    -0.13039   0.56866   2.57669
H    -2.31309  -1.78959   2.75211
H    -3.11040  -1.14854   1.30638
H    -2.07241  -0.08776   2.30071
H    -1.15607  -3.69723   1.22146
H    -0.42401  -3.13801  -0.30082
H    -2.19613  -3.00875  -0.03426
