39
Generated by autodE on: 2022-06-18. E = -931.498347 Ha
C     4.24277  -0.41305   1.24810
N     3.12119  -0.46599   0.33694
C     2.25462   0.53964   0.15862
O     2.38229   1.66115   0.66811
C     1.06813   0.22986  -0.77965
C     1.28952   0.99682  -2.08209
N     0.97898  -1.22338  -1.03382
C    -0.13552  -1.75232  -0.24762
C     0.33950  -2.12712   1.09877
N     0.76194  -2.40967   2.14171
C    -1.19033  -0.61714  -0.21714
C    -2.21430  -0.81020   0.89629
N    -2.79683   0.29656   1.38331
O    -2.50279  -1.94655   1.28847
C    -1.94200  -0.61857  -1.57608
C    -2.45517   0.73976  -1.93953
C    -1.92397   1.85554  -1.39875
N    -0.90103   1.86702  -0.47347
C    -0.55302   3.08424   0.23642
C    -0.28320   0.63307  -0.04820
H     4.00696  -0.91470   2.20200
H     4.49101   0.63520   1.45676
H     5.11944  -0.90661   0.80430
H     2.83770  -1.34963  -0.08248
H     0.43177   0.87038  -2.75755
H     2.19617   0.62555  -2.58394
H     1.41962   2.06741  -1.87945
H     0.79598  -1.39821  -2.01924
H    -0.53799  -2.66256  -0.71226
H    -2.57133   1.21953   1.02970
H    -3.52101   0.20281   2.08936
H    -2.75821  -1.35674  -1.52115
H    -1.25491  -0.99745  -2.35480
H    -3.26392   0.83148  -2.66599
H    -2.30481   2.84651  -1.65898
H    -0.98276   3.94867  -0.28764
H    -0.93995   3.08100   1.27358
H     0.53748   3.20735   0.28532
H    -0.05764   0.73584   1.02375
