20
Generated by autodE on: 2022-06-18. E = -457.715317 Ha
C     0.78986  -2.98891  -0.73816
N     0.45584  -1.77222  -0.01637
C     0.29825  -1.81643   1.37453
C    -0.05490  -0.74230   2.09813
C    -0.31821   0.61266   1.48845
C    -0.13370   0.56123  -0.01954
C    -0.33413   1.75488  -0.85634
N    -0.69282   2.88858  -0.20265
O    -0.19007   1.75848  -2.09614
C     0.22624  -0.59048  -0.65370
H    -0.01265  -3.74008  -0.64949
H     0.93198  -2.75251  -1.80001
H     1.72106  -3.43104  -0.34986
H     0.48669  -2.79180   1.82704
H    -0.15408  -0.85450   3.18024
H     0.35182   1.37077   1.94366
H    -1.34003   0.95550   1.75122
H    -0.82194   2.92624   0.80027
H    -0.84394   3.73298  -0.74340
H     0.34997  -0.59916  -1.73777
