19
Generated by autodE on: 2022-07-27. E = -473.725378 Ha
C     1.60868  -0.71251   2.02416
N     1.21966  -0.30813   0.68694
C     0.46763   0.79055   0.47449
O     0.25395   1.63505   1.35536
C    -0.02345   1.01791  -0.91363
C     0.08416   2.40620  -1.45301
N    -0.59041   0.07720  -1.64890
C    -1.01589  -1.20511  -1.43242
C    -1.12685  -1.79510  -0.17604
N    -1.24651  -2.32162   0.86753
H     2.15760   0.09424   2.53161
H     2.25821  -1.59336   1.95393
H     0.72764  -0.96913   2.63545
H     1.33073  -0.98152  -0.06409
H    -0.22780   2.45124  -2.50682
H     1.11690   2.78285  -1.37105
H    -0.55604   3.09245  -0.87276
H    -0.79276   0.38256  -2.60533
H    -1.39974  -1.72316  -2.30901
