19
Generated by autodE on: 2022-06-18. E = -473.736589 Ha
C     3.70429  -0.91324   0.27681
N     2.26951  -0.99062   0.09672
C     1.45097   0.07784   0.17531
O     1.85815   1.23663   0.40047
C     0.00641  -0.17536  -0.02411
C    -0.56492  -1.52603  -0.28640
N    -0.69775   0.94174   0.07102
C    -1.99583   1.30046  -0.01853
C    -3.06112   0.43541  -0.28353
N    -3.99989  -0.23366  -0.50297
H     4.02748  -1.50872   1.14566
H     4.23363  -1.28716  -0.61368
H     3.98537   0.13300   0.44222
H     1.86397  -1.90225  -0.08378
H    -0.11338  -1.97482  -1.18763
H    -1.64896  -1.49833  -0.43629
H    -0.35861  -2.20939   0.55565
H    -0.05488   1.72822   0.26594
H    -2.20349   2.35998   0.12549
