39
Generated by autodE on: 2022-06-18. E = -931.423846 Ha. Imaginary frequency = -430.4 cm-1
C     3.10292  -1.03436   2.23297
N     2.68333  -0.54946   0.93360
C     1.87275   0.51291   0.77224
O     1.62460   1.30929   1.69802
C     1.30789   0.72693  -0.59342
C     1.79435   1.96748  -1.28279
N     1.03927  -0.34439  -1.40925
C     0.28474  -1.43481  -1.07076
C     0.60854  -2.34089  -0.03097
N     0.79466  -3.13971   0.80066
C    -1.39267  -0.20027  -0.00957
C    -1.44916  -0.88175   1.30683
N    -0.72401  -0.39856   2.34576
O    -2.17814  -1.87856   1.46084
C    -2.49094  -0.62634  -0.98272
C    -2.38411   0.13013  -2.28000
C    -1.83075   1.35558  -2.30446
N    -1.25088   1.92934  -1.17581
C    -1.10688   3.37212  -1.10215
C    -0.87265   1.11556  -0.11080
H     3.20404  -0.19125   2.92707
H     4.07114  -1.54411   2.14214
H     2.36525  -1.74596   2.64204
H     2.85993  -1.14597   0.13250
H     1.17246   2.19424  -2.16135
H     2.84016   1.85018  -1.61734
H     1.75925   2.81686  -0.58947
H     0.86517  -0.05809  -2.37245
H    -0.21302  -1.90770  -1.91990
H    -0.71335  -0.95867   3.19168
H    -0.00864   0.31820   2.24680
H    -2.45790  -1.71341  -1.14509
H    -3.48064  -0.44050  -0.51366
H    -2.78787  -0.29947  -3.19869
H    -1.79721   1.97398  -3.20582
H    -0.71163   3.77333  -2.04813
H    -0.41137   3.63915  -0.29740
H    -2.07404   3.86702  -0.89821
H    -0.56789   1.66394   0.77848
