46
Generated by autodE on: 2022-05-31. E = -1183.591799 Ha
C    -3.55236   1.69259   1.39328
N    -2.92792   0.66282   0.59418
C    -2.29814   0.90930  -0.56179
O    -2.29651   2.01711  -1.11790
C    -1.49716  -0.28277  -1.13765
C    -1.59079  -0.22745  -2.67159
C    -0.00912  -0.15015  -0.69678
C     0.27691   0.73364   0.55875
O    -0.06281  -0.14190   1.63981
C     0.86172  -1.18027   1.28733
C     2.17810  -0.41696   1.13336
C     3.49930  -1.06372   1.33329
C     1.79696   0.79525   0.69224
C     2.59343   1.93891   0.19346
F     3.89914   1.86419   0.50805
F     2.13949   3.11645   0.68114
F     2.52258   2.04867  -1.15778
C     0.41625  -1.54986  -0.16051
C    -0.81964  -2.48095  -0.30196
C    -0.57829  -3.44137  -1.48379
C    -1.10022  -3.31584   0.95281
N    -1.94187  -1.53983  -0.52732
C    -3.18162  -2.09821  -1.03221
H    -4.32349   1.24737   2.03649
H    -2.81971   2.21251   2.03557
H    -4.02209   2.43948   0.73858
H    -2.76003  -0.27122   0.96669
H    -0.97153  -1.01249  -3.12639
H    -2.62644  -0.35164  -3.01953
H    -1.23105   0.74684  -3.02731
H     0.59567   0.19953  -1.53990
H    -0.25596   1.68719   0.62137
H     0.86253  -1.98813   2.02448
H     4.33932  -0.40412   1.08717
H     3.60133  -1.40504   2.37727
H     3.56118  -1.96832   0.70373
H     1.26476  -1.97461  -0.71001
H    -0.34506  -2.89687  -2.41012
H    -1.45423  -4.08024  -1.66970
H     0.27328  -4.10109  -1.25708
H    -0.23456  -3.94751   1.20394
H    -1.33105  -2.67350   1.81437
H    -1.95843  -3.98475   0.78765
H    -3.12327  -2.47916  -2.06955
H    -3.50953  -2.92847  -0.38926
H    -3.97285  -1.33410  -1.00506
