27
Generated by autodE on: 2022-07-27. E = -499.426619 Ha
C    -1.27761   2.69693   1.78042
N    -0.90223   1.43043   1.18821
C    -0.73222   1.33518  -0.19042
O    -1.08605   2.31363  -0.90841
C    -0.15952   0.15181  -0.73719
C     0.18351   0.09273  -2.19713
N     0.08767  -0.98652   0.06542
C    -1.03592  -1.57035   0.82509
C     1.23287  -1.64594   0.01496
C     2.44229  -0.98500  -0.54237
C     1.34386  -3.03615   0.55430
H    -0.52343   3.49278   1.62776
H    -1.41667   2.55939   2.86198
H    -2.22544   3.06059   1.35724
H    -0.30559   0.84333   1.76032
H     1.17868   0.49366  -2.47713
H     0.14980  -0.94648  -2.56503
H    -0.55698   0.67719  -2.76545
H    -0.71726  -1.86735   1.83308
H    -1.41392  -2.45469   0.29155
H    -1.83486  -0.82962   0.89416
H     3.34023  -1.39002  -0.05242
H     2.38068   0.10463  -0.39192
H     2.55934  -1.15500  -1.62756
H     2.25051  -3.51858   0.16590
H     1.42004  -3.02449   1.65681
H     0.47400  -3.65817   0.29603
