30
Generated by autodE on: 2022-05-31. E = -816.155048 Ha
C    -2.36471   0.91375  -2.78484
C    -2.03734   0.89679  -1.32291
O    -2.87006   1.06434  -0.45392
C    -0.55152   0.66735  -0.92883
C     0.15786   2.04057  -1.17693
C     0.11594   3.03707  -0.06010
O     0.67712   2.26138  -2.25029
C    -0.42769   0.25077   0.45975
C    -0.04638  -0.32608   1.45481
C     0.75500  -1.35067   2.12583
F    -0.03532  -2.44250   2.40886
F     1.23619  -0.92707   3.33731
C     1.91053  -1.76629   1.22315
C     1.52319  -2.10629  -0.22878
C     1.48650  -0.95271  -1.27117
C     0.11386  -0.45955  -1.77606
H    -2.30476  -0.11380  -3.17923
H    -3.38246   1.29745  -2.93026
H    -1.63685   1.51659  -3.34701
H     0.80883   2.71199   0.73319
H    -0.88923   3.07204   0.38758
H     0.41727   4.02668  -0.42628
H     2.64646  -0.94762   1.24523
H     2.37186  -2.63974   1.71110
H     2.27176  -2.83364  -0.57588
H     0.56425  -2.65124  -0.23082
H     2.08104  -0.09740  -0.90847
H     2.01512  -1.31478  -2.16588
H    -0.58616  -1.30720  -1.82987
H     0.22739  -0.06325  -2.79350
