13
Generated by autodE on: 2022-05-31. E = -490.153351 Ha
C     3.07075  -0.23464   0.23222
O     1.72594   0.27777   0.19085
C     0.75621  -0.60134  -0.01351
O     0.90089  -1.79850  -0.16566
C    -0.57257   0.05048  -0.04189
C    -0.77855   1.43995   0.14317
N    -0.93959   2.58159   0.29673
N    -1.61605  -0.73974  -0.25760
O    -2.80536  -0.40758  -0.32194
H     3.71489   0.63472   0.40222
H     3.17436  -0.95731   1.05375
H     3.31988  -0.71804  -0.72282
H    -1.36340  -1.74399  -0.37947
