43
Generated by autodE on: 2022-05-31. E = -1306.298865 Ha. Imaginary frequency = -352.0 cm-1
C    -3.70745  -3.18786   1.18937
O    -3.27122  -1.98278   0.53302
C    -2.30690  -2.10268  -0.35901
O    -1.82153  -3.14054  -0.75513
C    -1.81134  -0.76797  -0.82524
C    -2.53003   0.43805  -0.53642
N    -3.11973   1.41733  -0.33162
N    -1.00774  -0.79309  -1.89989
O    -0.27291   0.22051  -2.12639
C     0.67995   0.38534  -0.28658
C    -0.12078  -0.15541   0.50003
C    -0.40180  -0.53200   1.89583
F    -1.70719  -0.23011   2.21398
F    -0.32017  -1.90751   2.00471
C     0.50284   0.12855   2.91702
C     2.01238  -0.04249   2.69813
C     2.74463   1.03314   1.86407
C     3.02816   0.73487   0.38451
C     1.91577   1.09095  -0.64201
C     1.71065   2.63107  -0.66219
C     0.31573   3.17208  -0.60612
O     2.69357   3.34509  -0.71745
C     2.39137   0.57108  -2.04900
C     2.31103   1.49647  -3.22372
O     2.82270  -0.55928  -2.13103
H    -4.09751  -3.90313   0.45257
H    -4.49717  -2.87910   1.88236
H    -2.86470  -3.63202   1.73757
H    -0.66061  -1.72457  -2.17790
H     0.20626  -0.30286   3.88604
H     0.23351   1.19586   2.93714
H     2.21868  -1.04640   2.29037
H     2.46424  -0.03499   3.70096
H     3.73267   1.17546   2.32788
H     2.23098   2.00371   1.97191
H     3.91335   1.30515   0.06727
H     3.26176  -0.33063   0.25227
H     0.32754   4.25989  -0.74869
H    -0.31779   2.68300  -1.36096
H    -0.12443   2.92739   0.37450
H     3.08400   2.27375  -3.11345
H     1.33810   2.00711  -3.25767
H     2.48521   0.93514  -4.15043
