29
Generated by autodE on: 2022-05-26. E = -891.352536 Ha
C    -4.73450   0.14984   0.91951
N    -3.42317   0.48782   0.39724
C    -2.72967  -0.36446  -0.36112
O    -3.10736  -1.49217  -0.67392
C    -1.38013   0.16013  -0.89063
N    -0.91180   1.38220  -0.28046
C     0.29684   1.18215   0.13121
C     1.06828   2.18761   0.94163
C     0.68511   3.62688   0.82052
O     1.95337   1.77545   1.67167
C     0.78236  -0.18057  -0.14679
C     2.12577  -0.75538   0.13815
O     2.29148  -1.83070   0.67450
O     3.09842   0.03085  -0.30835
C     4.44700  -0.39731  -0.05298
C    -0.25094  -0.82895  -0.74652
C    -0.26842  -2.17019  -1.20506
N    -0.27118  -3.26958  -1.58501
H    -5.08559   0.97429   1.55107
H    -4.69142  -0.76933   1.52335
H    -5.45906  -0.00906   0.10535
H    -3.01765   1.39942   0.58518
H    -1.56066   0.35434  -1.96642
H    -0.38314   3.75431   1.05395
H     0.82495   3.95586  -0.22248
H     1.29914   4.23552   1.49584
H     5.09329   0.36627  -0.49960
H     4.62137  -0.46127   1.03062
H     4.63229  -1.37644  -0.51645
