18
Generated by autodE on: 2022-05-26. E = -493.589840 Ha
C     4.00027  -0.77829   0.79883
N     2.96361  -0.60101  -0.19568
C     1.71094  -0.19233   0.10206
O     1.31511   0.05496   1.25063
C     0.81691  -0.06449  -1.07107
N    -0.37964   0.35426  -0.86286
C    -1.42679   0.82038  -0.49448
C    -2.75827   0.34230  -0.15822
C    -2.92469  -0.01365   1.29592
O    -3.65835   0.31411  -0.98799
H     3.54169  -0.77928   1.79474
H     4.52158  -1.73465   0.64398
H     4.74677   0.03263   0.75866
H     3.20308  -0.73759  -1.17295
H     1.13194  -0.30824  -2.08853
H    -1.98486  -0.39112   1.72473
H    -3.21701   0.89205   1.85327
H    -3.72515  -0.76087   1.39016
