11
Generated by autodE on: 2022-05-26. E = -397.625316 Ha
C    -3.17758   0.75894   0.18318
O    -1.73684   0.81581   0.20639
C    -1.09531  -0.30633  -0.08357
O    -1.60544  -1.36921  -0.36289
C     0.34925  -0.12106  -0.02967
C     1.56175  -0.03821  -0.00308
C     2.92993   0.06807   0.02954
N     4.09212   0.15861   0.05707
H    -3.51751   1.76601   0.44694
H    -3.53712   0.02431   0.91712
H    -3.52667   0.48324  -0.82174
