33
Generated by autodE on: 2022-05-29. E = -1518.933867 Ha
C     4.09505   1.66774  -1.89218
N     3.01763   0.75958  -1.53837
C     2.35442   0.88727  -0.38758
O     2.59407   1.71222   0.48588
C     1.23052  -0.16246  -0.14914
C     1.84293  -1.24062   0.63266
N     2.37942  -2.10704   1.18531
N     0.76984  -0.81659  -1.43139
N    -0.45478  -0.92524  -1.49729
C    -1.17941  -0.33999  -0.34321
C    -1.92126  -1.50076   0.32586
F    -2.68904  -1.09199   1.34096
F    -2.71980  -2.11130  -0.56106
F    -1.06573  -2.42446   0.79560
C    -2.15429   0.79870  -0.78337
C    -1.51843   1.57338  -1.95028
C    -0.29960   2.26164  -1.27424
C    -0.44144   1.89091   0.22315
C    -1.97458   1.80392   0.36866
C    -0.06773   0.40993   0.47901
Cl   -0.08291   0.12490   2.26725
H     3.72393   2.70039  -1.98527
H     4.88371   1.65166  -1.12518
H     4.52063   1.35158  -2.85145
H     2.70826   0.05714  -2.20473
H    -3.16777   0.42976  -0.97728
H    -2.24176   2.31366  -2.31801
H    -1.24243   0.93311  -2.79737
H    -0.35170   3.35494  -1.36520
H     0.65484   1.95989  -1.72216
H     0.09096   2.56314   0.90179
H    -2.30694   1.43687   1.34695
H    -2.46914   2.76161   0.15503
