13
Generated by autodE on: 2022-05-29. E = -449.218713 Ha
C     3.06865  -0.15003   0.31178
N     1.64977  -0.42956   0.43510
C     0.73702   0.33013  -0.19301
O     1.01332   1.30281  -0.89774
C    -0.68748  -0.07475   0.01100
C    -1.14352  -1.16520   0.78263
N    -1.46594  -2.07811   1.43290
N    -1.58007   0.67899  -0.60553
N    -2.29532   1.35471  -1.15245
H     3.30566   0.86570   0.66455
H     3.40290  -0.23517  -0.73423
H     3.62246  -0.87469   0.92022
H     1.35315  -1.22011   0.99854
