20
Generated by autodE on: 2022-05-29. E = -1069.688658 Ha
F    -1.56547  -1.35087   1.19579
C    -1.49358  -0.68034   0.01901
F    -2.32737   0.36632   0.11382
F    -2.00799  -1.51339  -0.91351
C    -0.09678  -0.30204  -0.30584
C     0.52295   0.89045  -0.22414
Cl   -0.11239   2.42348   0.25534
C     2.00802   0.67488  -0.43663
C     2.50490  -0.04985   0.85788
C     1.81353  -1.43993   0.76646
C     0.99739  -1.33423  -0.56189
C     1.96254  -0.50285  -1.43179
H     2.57244   1.57200  -0.71512
H     3.60040  -0.13957   0.83039
H     2.23336   0.51188   1.76273
H     2.55156  -2.25153   0.68777
H     1.16062  -1.65521   1.62301
H     0.64312  -2.29018  -0.96582
H     2.94184  -0.98418  -1.57121
H     1.53500  -0.22615  -2.40610
