26
Generated by autodE on: 2022-06-10. E = -669.354905 Ha
C     4.32468   1.12269  -0.04743
C     3.00566   1.84681  -0.08844
O     2.88091   3.06910  -0.15434
C     1.86835   0.98707  -0.04786
N     0.92908   0.27721   0.01284
C     0.01513  -0.66540   0.07841
C     0.59680  -2.02215   0.12458
C    -0.30856  -3.22278   0.03266
O     1.81987  -2.16444   0.20713
C    -1.40432  -0.26732   0.02712
C    -1.77836   0.87907  -0.70437
C    -3.10864   1.29379  -0.75188
C    -4.09710   0.57251  -0.07346
C    -3.73721  -0.56044   0.66213
C    -2.40548  -0.97596   0.71944
H     4.87788   1.34815  -0.97353
H     4.91088   1.50889   0.80150
H     4.19799   0.03552   0.05066
H    -1.17074  -3.05299  -0.62623
H     0.28440  -4.07438  -0.32727
H    -0.69415  -3.47492   1.03423
H    -1.01724   1.44361  -1.24761
H    -3.37599   2.18241  -1.32858
H    -5.13999   0.89482  -0.11406
H    -4.49774  -1.12277   1.20899
H    -2.14463  -1.84012   1.32893
