35
Generated by autodE on: 2022-06-10. E = -932.791645 Ha
C     0.03772   3.29496  -2.82301
N     0.01492   2.21644  -1.85169
C     0.87875   2.17178  -0.83215
O     1.73630   3.03112  -0.61636
C     0.80319   0.93835   0.09563
C     0.88696   1.48981   1.53156
O     1.83791   1.35667   2.26560
O    -0.22406   2.14870   1.84778
C    -0.27578   2.75034   3.15325
C    -0.38419   0.10957  -0.05376
C    -1.09775  -0.86284  -0.15071
C    -1.35920  -2.30185  -0.28907
C    -1.54279  -2.63772  -1.71879
N    -1.64391  -2.90525  -2.84147
C    -2.55572  -2.74164   0.45703
N    -3.47228  -3.09539   1.07079
C    -0.08280  -3.04624   0.27347
C     1.25971  -2.54536  -0.28857
C     1.98806  -1.38578   0.44728
C     2.01285   0.00379  -0.22003
H    -0.05072   4.27122  -2.32308
H    -0.80659   3.16916  -3.51095
H     0.97410   3.29092  -3.40325
H    -0.65192   1.45906  -1.96681
H    -1.25702   3.23267   3.22301
H    -0.17057   1.98042   3.93055
H     0.52587   3.49506   3.25834
H    -0.11643  -2.92728   1.36622
H    -0.22281  -4.11325   0.04752
H     1.15219  -2.30970  -1.36094
H     1.92465  -3.42100  -0.25201
H     1.61434  -1.29939   1.48024
H     3.04282  -1.68400   0.54372
H     2.91284   0.55278   0.08878
H     2.05982  -0.11200  -1.31368
