28
Generated by autodE on: 2022-10-07. E = -856.968723 Ha
C     4.00811  -2.10188   0.91514
O     3.38249  -1.59938  -0.26731
C     2.08214  -1.24235  -0.14734
O     1.44833  -1.38938   0.90589
N     1.64606  -0.75826  -1.32759
O     0.27544  -0.43595  -1.25884
C    -0.34656   0.18733  -0.32459
C     0.35773   0.84330   0.84962
O    -0.10307   0.84171   1.96723
O     1.44752   1.47736   0.45668
C     2.25089   2.08229   1.48830
C    -1.77826   0.29383  -0.48233
C    -2.42991  -0.51117  -1.44936
C    -3.80026  -0.40151  -1.63662
C    -4.54291   0.50827  -0.87006
C    -3.91006   1.30885   0.08699
C    -2.53769   1.20653   0.28859
H     5.05031  -2.30721   0.64100
H     3.52445  -3.02910   1.25729
H     3.97538  -1.35701   1.72517
H     2.59124   1.30694   2.18896
H     1.67003   2.84534   2.02427
H     3.10335   2.53687   0.97274
H    -1.84893  -1.22652  -2.03155
H    -4.29971  -1.02971  -2.37654
H    -5.62184   0.59004  -1.01947
H    -4.49080   2.01905   0.67829
H    -2.05446   1.83906   1.03105
