28
Generated by autodE on: 2022-10-13. E = -856.977895 Ha
C     4.50253   0.93630  -0.52819
O     3.13415   0.56965  -0.34238
C     2.88806  -0.75862  -0.21407
O     3.78297  -1.60358  -0.25768
N     1.59745  -1.12935  -0.03410
O     0.79029   0.02817  -0.01183
C    -0.46179  -0.13288   0.14255
C    -0.96931  -1.54762   0.35069
O    -1.10787  -2.00925   1.45799
O    -1.24438  -2.13357  -0.79570
C    -1.70988  -3.49950  -0.73299
C    -1.32052   1.01739   0.17633
C    -0.77802   2.31529   0.01877
C    -1.61925   3.41855   0.04240
C    -3.00035   3.24659   0.22214
C    -3.54322   1.96639   0.37945
C    -2.71237   0.85074   0.35712
H     4.91237   0.48443  -1.44401
H     4.51375   2.02989  -0.61611
H     5.11551   0.62523   0.33119
H    -0.93913  -4.13258  -0.27227
H    -1.88724  -3.79995  -1.77087
H    -2.63895  -3.55231  -0.14923
H     0.29723   2.43406  -0.12137
H    -1.20495   4.42112  -0.07925
H    -3.65681   4.11936   0.23950
H    -4.61807   1.83950   0.52014
H    -3.13963  -0.14580   0.48372
