10
Generated by autodE on: 2022-10-07. E = -455.051703 Ha
O    -2.01201  -0.76949  -1.37410
C    -1.94778  -0.19169  -0.25427
O    -2.93186   0.14401   0.46218
C    -0.57960   0.14168   0.30480
C     0.57958  -0.14172  -0.30478
C     1.94778   0.19173   0.25425
O     2.93187  -0.14408  -0.46213
O     2.01201   0.76956   1.37406
H    -0.56231   0.64973   1.27496
H     0.56226  -0.64980  -1.27494
