37
Generated by autodE on: 2022-10-22. E = -1029.254603 Ha
C     3.43479  -1.67027   2.71374
N     2.97302  -0.56510   1.90217
C     1.74454  -0.57381   1.34144
O     1.00393  -1.57821   1.40605
C     1.30060   0.65673   0.67764
N     0.07482   0.68469   0.05347
C    -0.65672  -0.26564  -0.49492
C    -0.00673  -1.56236  -0.86646
O     1.06532  -1.62153  -1.43487
O    -0.79033  -2.60706  -0.62192
C    -0.27081  -3.89468  -0.98722
C    -2.03841   0.02046  -0.87550
C    -2.78193   1.00867  -0.19504
C    -4.08192   1.31618  -0.59362
C    -4.66927   0.63757  -1.66604
C    -3.94655  -0.35425  -2.33937
C    -2.64574  -0.66455  -1.95070
C     1.94446   1.93667   0.85585
O     3.01536   2.13475   1.43279
O     1.23975   2.95491   0.30501
C     1.76244   4.27525   0.47995
H     2.88255  -1.75156   3.66642
H     4.49885  -1.52574   2.94009
H     3.31463  -2.62265   2.17653
H     3.45215   0.33451   1.93296
H    -0.33214   1.62631   0.02048
H    -1.04616  -4.62003  -0.71659
H    -0.06852  -3.93591  -2.06693
H     0.65464  -4.09690  -0.42935
H    -2.35508   1.51782   0.67182
H    -4.64523   2.07900  -0.05176
H    -5.69082   0.87435  -1.97157
H    -4.39913  -0.88708  -3.17845
H    -2.09077  -1.42921  -2.49565
H     2.76195   4.35917   0.02903
H     1.06225   4.94706  -0.03044
H     1.82265   4.53358   1.54753
