37
Generated by autodE on: 2022-10-26. E = -1029.244680 Ha
C     3.58673  -1.16773  -2.91022
N     2.53052  -0.88293  -1.95796
C     2.74272   0.01229  -0.94099
O     3.82795   0.60154  -0.83626
C     1.58930   0.24783  -0.05983
N     0.35437  -0.05070  -0.59008
C    -0.83811  -0.22909  -0.04781
C    -0.93394  -0.52801   1.41466
O    -0.18998  -1.30210   1.98184
O    -1.96748   0.07902   1.98508
C    -2.16821  -0.17577   3.38464
C    -2.01612  -0.27865  -0.91038
C    -3.15625  -1.01996  -0.52819
C    -4.25701  -1.10937  -1.37626
C    -4.24931  -0.46314  -2.61797
C    -3.13034   0.28095  -3.00431
C    -2.02590   0.38043  -2.15933
C     1.64968   0.95827   1.20012
O     0.66543   1.40817   1.78792
O     2.89065   1.10143   1.69671
C     3.00477   1.83612   2.91914
H     3.95779  -0.23616  -3.36042
H     3.18490  -1.80856  -3.70552
H     4.44436  -1.68092  -2.44155
H     1.82307  -1.60041  -1.83564
H     0.36027  -0.11628  -1.61383
H    -1.28743   0.15176   3.95481
H    -3.04988   0.40733   3.67275
H    -2.34408  -1.24702   3.55746
H    -3.17300  -1.54401   0.42806
H    -5.12709  -1.69329  -1.06830
H    -5.11685  -0.53219  -3.27791
H    -3.12295   0.80416  -3.96293
H    -1.18325   1.00673  -2.46095
H     2.63929   2.86626   2.79487
H     2.43665   1.34635   3.72393
H     4.07347   1.84528   3.16477
