51
Generated by autodE on: 2022-10-22. E = -1337.013771 Ha. Imaginary frequency = -379.4 cm-1
C     3.45992  -0.09262  -3.08498
N     2.45412   0.08290  -2.05359
C     2.72886   0.77671  -0.93121
O     3.81540   1.32708  -0.72431
C     1.61275   0.85967   0.09467
C     2.07272   1.71817   1.25709
O     1.89494   2.91860   1.27679
O     2.83297   1.06433   2.13150
C     3.39880   1.84677   3.19016
C     1.52249  -1.11198   0.84540
C     0.39290  -1.71077   0.26175
O    -0.63622  -2.28979   0.86081
C    -0.62573  -2.44642   2.28533
O     0.38040  -1.80363  -1.06456
C    -0.62622  -2.57887  -1.74167
C    -0.85085   0.81118   0.15462
C    -0.96140   0.90406   1.57745
O    -0.04743   1.20808   2.36066
O    -2.20176   0.62659   2.06936
C    -2.36817   0.72674   3.48122
C    -1.94380   0.52515  -0.78061
C    -3.06537  -0.26959  -0.43455
C    -4.02028  -0.62621  -1.38474
C    -3.90494  -0.21155  -2.71678
C    -2.81478   0.58391  -3.07740
C    -1.85898   0.95215  -2.12940
N     0.38321   1.09357  -0.44126
H     3.87757   0.88019  -3.38041
H     2.99281  -0.55990  -3.96075
H     4.29113  -0.73109  -2.74106
H     1.66974  -0.56822  -2.03097
H     4.04026   2.64155   2.78275
H     2.60090   2.29532   3.79978
H     3.99270   1.15251   3.79585
H     1.54169  -1.04163   1.92964
H     2.47482  -1.37754   0.38406
H     0.20148  -3.10893   2.58134
H    -0.52289  -1.47823   2.78935
H    -1.58882  -2.90091   2.54282
H    -0.54296  -3.63533  -1.44958
H    -0.40863  -2.46211  -2.80902
H    -1.62946  -2.20039  -1.51673
H    -2.11129   1.73396   3.84209
H    -3.42853   0.52088   3.67472
H    -1.74714  -0.01069   4.01299
H    -3.16448  -0.64338   0.57994
H    -4.86138  -1.25467  -1.08027
H    -4.65470  -0.49875  -3.45732
H    -2.70798   0.93677  -4.10635
H    -1.04960   1.61039  -2.45290
H     0.35672   0.92060  -1.44250
