39
Generated by autodE on: 2022-06-03. E = -1933.385007 Ha
C     0.08016   3.47094  -0.52904
C    -0.98011   2.44208  -0.31544
O    -2.08869   2.47723  -0.80172
C    -0.67822   1.34631   0.77418
C    -1.13207   1.95141   2.04196
N    -1.44800   2.52216   3.00040
O     0.71145   1.08739   0.86472
C     1.00196  -0.30286   0.70680
C     2.37890  -0.52146   0.14039
C     2.99493   0.41470  -0.70091
C     4.24485   0.13681  -1.25983
C     4.88330  -1.07759  -0.99112
C     4.27260  -2.01211  -0.14877
C     3.02900  -1.73201   0.42116
C    -0.18245  -0.81558  -0.17062
Cl   -0.35763  -2.59116  -0.02813
C     0.04971  -0.38887  -1.64410
C     0.41017  -1.41688  -2.66577
O     0.03934   0.80167  -1.89478
C    -1.36495  -0.03617   0.46689
Cl   -1.82438  -0.81782   2.04586
C    -2.64932  -0.04734  -0.40623
C    -3.94565   0.41058   0.19248
O    -2.57135  -0.53752  -1.51362
H     1.04265   3.00489  -0.77113
H    -0.23393   4.15678  -1.32550
H     0.21570   4.03175   0.41145
H     0.92082  -0.81595   1.67745
H     2.49806   1.35873  -0.92047
H     4.72057   0.87386  -1.91072
H     5.85901  -1.29338  -1.43268
H     4.76981  -2.95916   0.07285
H     2.55532  -2.45755   1.08567
H     0.62126  -0.90941  -3.61514
H    -0.41098  -2.13718  -2.79035
H     1.29544  -1.98088  -2.33166
H    -3.81130   1.15817   0.98342
H    -4.45184  -0.46733   0.62715
H    -4.57881   0.80803  -0.61133
