23
Generated by autodE on: 2022-06-03. E = -630.011253 Ha
C    -2.74045   1.67597  -0.30251
C    -3.02338   0.20978  -0.06164
O    -4.18353  -0.23084  -0.00137
C    -1.90131  -0.66500   0.09684
C    -2.02118  -2.04257   0.32783
N    -2.10073  -3.19462   0.52072
O    -0.65316  -0.09817   0.01485
C     0.48604  -0.66761   0.13368
C     1.68458   0.09835   0.00535
C     1.66475   1.48928  -0.25884
C     2.86168   2.18276  -0.37640
C     4.08534   1.50919  -0.23444
C     4.11300   0.13436   0.02715
C     2.92060  -0.57283   0.14750
H    -3.69532   2.20869  -0.39964
H    -2.16175   2.10591   0.53010
H    -2.14633   1.81527  -1.21940
H     0.51862  -1.74565   0.33335
H     0.70910   2.00442  -0.36881
H     2.85109   3.25526  -0.58066
H     5.02217   2.06274  -0.32935
H     5.06765  -0.38374   0.13676
H     2.92784  -1.64572   0.35172
