39
Generated by autodE on: 2022-06-03. E = -1933.322805 Ha. Imaginary frequency = -285.9 cm-1
C    -0.52335   3.37776  -0.79138
C    -1.17482   2.83935   0.44859
O    -2.18099   3.33152   0.95421
C    -0.57680   1.64027   1.05149
C    -0.94839   1.25324   2.36053
N    -1.25552   0.92816   3.43759
O     0.60877   1.25072   0.54396
C     1.07190   0.01977   0.71637
C     2.42549  -0.25333   0.26324
C     3.12017   0.62109  -0.59799
C     4.41352   0.31006  -1.00474
C     5.02752  -0.87154  -0.56649
C     4.34885  -1.73712   0.29680
C     3.05577  -1.42930   0.71680
C    -0.38017  -1.01481  -0.51695
Cl    0.11450  -2.68395  -0.20634
C    -0.04485  -0.60250  -1.96448
C    -0.58273  -1.51847  -3.03171
O     0.67014   0.34317  -2.21095
C    -1.58699  -0.57074   0.05627
Cl   -2.22565  -1.42142   1.42480
C    -2.51005   0.35775  -0.65755
C    -3.79752   0.75511   0.00445
O    -2.22150   0.72603  -1.79112
H    -0.47874   2.59909  -1.56724
H    -1.09540   4.24155  -1.15210
H     0.51454   3.67675  -0.57379
H     0.71789  -0.51890   1.60229
H     2.64134   1.53910  -0.93596
H     4.95100   0.99111  -1.66797
H     6.04217  -1.11120  -0.89269
H     4.83164  -2.65041   0.65047
H     2.52932  -2.09296   1.40406
H    -0.64973  -0.96123  -3.97520
H    -1.55886  -1.94003  -2.75615
H     0.12459  -2.35332  -3.16683
H    -3.65414   1.04363   1.05405
H    -4.48870  -0.10403  -0.01335
H    -4.24035   1.58423  -0.56089
