51
Generated by autodE on: 2022-10-22. E = -1374.918419 Ha
C     4.64899  -0.70974   1.91901
N     3.42256  -0.36028   1.23065
C     2.82518  -1.14592   0.31889
O     3.25548  -2.23891  -0.05265
C     1.51688  -0.56962  -0.20884
C     1.00308  -1.06331  -1.57870
O     1.20489  -2.07149  -2.20152
O     0.16247  -0.08727  -1.99512
C     0.19829   0.96708  -0.93479
C    -0.24943   2.30660  -1.51483
C    -0.85519   2.31481  -2.87853
O    -0.10809   3.29684  -0.82312
N     1.53491   0.88875  -0.43279
C     2.57843   1.37910  -1.34102
C    -0.69331   0.41278   0.21673
C    -2.10698   0.18350  -0.30226
C    -2.49818  -0.94764  -1.03724
C    -3.78491  -1.04155  -1.57457
C    -4.70550  -0.00463  -1.40485
C    -4.32412   1.13481  -0.69267
C    -3.04016   1.22619  -0.15159
C    -0.68304   1.27657   1.54676
C    -1.61482   0.52426   2.49754
C    -0.92016  -0.54919   2.89389
C     0.43653  -0.41698   2.21792
O     0.59341   0.99605   2.12548
C     0.22073  -0.78783   0.70833
O    -0.37424  -2.03184   0.51696
C     0.30303  -3.17371   1.03792
H     4.98932  -1.68964   1.56415
H     4.48207  -0.76118   3.00618
H     5.43482   0.03531   1.72041
H     2.96872   0.52159   1.45561
H    -0.10430   1.97073  -3.60841
H    -1.69137   1.59921  -2.92385
H    -1.19653   3.32700  -3.12820
H     2.44676   2.46039  -1.47664
H     2.56764   0.89370  -2.33359
H     3.56225   1.21772  -0.88489
H    -1.79970  -1.76414  -1.19386
H    -4.06474  -1.93571  -2.13680
H    -5.70942  -0.08131  -1.82892
H    -5.02506   1.96181  -0.55814
H    -2.76557   2.13606   0.38308
H    -0.82403   2.35140   1.40999
H    -2.65064   0.78340   2.70835
H    -1.24193  -1.38942   3.50781
H     1.29432  -0.88909   2.70418
H     1.23113  -3.37656   0.48548
H    -0.38525  -4.02027   0.91465
H     0.53460  -3.05801   2.10884
