27
Generated by autodE on: 2022-10-22. E = -653.259908 Ha
C    -2.32516   1.78755   2.08061
O    -1.12197   1.28610   1.49302
C    -1.21641   0.56189   0.36975
C    -0.20979   0.02524  -0.36541
C     1.23090   0.03389  -0.17941
C     2.05905  -0.82507  -0.93676
C     3.44383  -0.83209  -0.76028
C     4.04429   0.01756   0.17396
C     3.23829   0.87584   0.93257
C     1.85489   0.88610   0.76303
C    -0.97398  -0.82557  -1.41372
C    -1.62421  -2.01838  -0.67533
C    -2.59897  -1.47782   0.06210
C    -2.53364   0.03508  -0.25558
O    -2.13681   0.00185  -1.63304
H    -2.02240   2.32458   2.98799
H    -2.83724   2.48362   1.39809
H    -3.00430   0.96537   2.35439
H     1.61359  -1.50084  -1.66911
H     4.05855  -1.50934  -1.35874
H     5.12815   0.01215   0.31067
H     3.69421   1.54629   1.66577
H     1.24151   1.56083   1.36011
H    -0.45035  -1.04093  -2.35080
H    -1.28099  -3.05125  -0.72676
H    -3.27289  -1.93807   0.78364
H    -3.44092   0.62544  -0.09607
