14
Generated by autodE on: 2022-06-17. E = -270.683223 Ha
C    -0.97833   1.02706  -0.71955
C    -0.82751  -0.10046   0.26102
C    -2.07955  -0.55244   0.94383
C     0.36304  -0.69871   0.54024
C     1.64956  -0.35418  -0.04606
O     1.87172   0.53984  -0.85957
H    -2.03417   1.30428  -0.84594
H    -0.55346   0.76223  -1.69983
H    -0.42015   1.91470  -0.37917
H    -2.81664  -0.88722   0.19277
H    -1.90227  -1.36535   1.66134
H    -2.54808   0.29863   1.46881
H     0.38513  -1.51692   1.26602
H     2.49548  -0.99181   0.30868
