17
Generated by autodE on: 2022-06-17. E = -493.267664 Ha
N     4.05455  -1.34035   0.26321
C     3.40009  -0.37435   0.18537
C     2.65570   0.81090   0.09229
O     1.35151   0.79758   0.03053
N     0.66802  -0.32766   0.05433
C    -0.68957  -0.07866  -0.02790
C    -1.51078  -1.22860  -0.00291
C    -2.89486  -1.10311  -0.08064
C    -3.48431   0.16264  -0.18433
C    -2.67255   1.30617  -0.20945
C    -1.28763   1.19936  -0.13260
H     3.10243   1.80381   0.06635
H    -1.03653  -2.20848   0.07833
H    -3.51979  -1.99878  -0.06046
H    -4.57023   0.26024  -0.24564
H    -3.12922   2.29542  -0.29082
H    -0.66360   2.09277  -0.15325
