31
Generated by autodE on: 2022-06-17. E = -763.937386 Ha. Imaginary frequency = -304.8 cm-1
C    -3.36284  -0.90109  -0.84869
C    -2.48572  -0.19812   0.15912
C    -3.06754   1.05435   0.76233
C    -1.07016   0.78286  -1.44682
C    -0.57714   1.86508  -0.67210
N    -0.30376   2.80364  -0.03742
O    -0.42072  -0.33822  -1.71640
N     0.40957  -0.98433  -0.88542
C     1.41951  -0.21080  -0.28767
C     1.89788  -0.60853   0.97675
C     2.98686   0.04734   1.54573
C     3.63152   1.08700   0.86338
C     3.18000   1.45753  -0.40701
C     2.08561   0.81768  -0.98706
C    -1.46645  -0.86043   0.83563
C    -1.18318  -2.28467   0.72078
O    -0.51452  -2.91654   1.53676
H    -3.91192  -0.17003  -1.45863
H    -2.79693  -1.56171  -1.51849
H    -4.10954  -1.51600  -0.31759
H    -3.40669   1.76187  -0.00857
H    -2.36346   1.55768   1.43801
H    -3.95751   0.76763   1.34990
H    -1.81674   1.01561  -2.20879
H     1.39508  -1.41728   1.50731
H     3.33626  -0.25657   2.53533
H     4.48518   1.59670   1.31497
H     3.68620   2.25273  -0.95932
H     1.75688   1.10023  -1.98844
H    -0.95843  -0.34089   1.65324
H    -1.65677  -2.81414  -0.13384
