16
Generated by autodE on: 2022-05-25. E = -438.067908 Ha. Imaginary frequency = -416.8 cm-1
C    -3.08495  -0.21448  -0.21894
C    -1.85443   0.29215   0.48097
O    -1.87707   0.98219   1.48599
C    -0.57942  -0.09922  -0.12913
C     1.11097   0.67731   0.94786
C     2.17450   0.34109   0.42886
C     3.47811  -0.00869  -0.11654
O     0.92260  -1.07690  -1.59079
N    -0.10519  -0.72561  -1.05101
H    -3.06060  -1.31482  -0.26262
H    -3.97705   0.12772   0.32099
H    -3.09907   0.15584  -1.25627
H     0.42142   1.14096   1.64152
H     3.62428  -1.09965  -0.13057
H     4.27735   0.43575   0.50094
H     3.59305   0.36595  -1.14520
