25
Generated by autodE on: 2022-06-02. E = -464.923990 Ha
C     2.49135  -1.40452   0.28125
C     1.85752  -0.03411   0.23876
O     2.51243   0.96438   0.55249
C     0.45801   0.03397  -0.19622
C    -0.41482   1.07003  -0.02748
C    -0.23172   2.40488   0.59879
C    -1.77895   0.56958  -0.46236
C    -2.22466  -0.43565   0.65304
C    -1.25045  -1.63162   0.45535
C    -0.35451  -1.14820  -0.72714
C    -1.39157  -0.40510  -1.59121
H     3.49817  -1.33710   0.71408
H     2.55865  -1.81725  -0.73890
H     1.87379  -2.10392   0.86700
H    -0.97930   2.54753   1.39857
H     0.77614   2.54344   1.00475
H    -0.42653   3.19793  -0.14506
H    -2.51423   1.35465  -0.68179
H    -2.16059   0.01511   1.65401
H    -3.27040  -0.73354   0.48582
H    -1.79281  -2.54761   0.17617
H    -0.65419  -1.85365   1.35189
H     0.22130  -1.94328  -1.21479
H    -0.94470   0.09945  -2.46091
H    -2.22671  -1.04322  -1.91938
