45
Generated by autodE on: 2022-10-23. E = -943.483557 Ha
C    -0.64118   1.93819   1.56573
C    -0.81251   0.60967   1.57603
C    -1.20726  -0.13320   2.82077
C    -0.67230  -0.26875   0.34326
C    -1.87432  -0.09558  -0.64245
C    -3.19118   0.33097  -0.05358
C    -4.12148  -0.49011   0.46538
C    -5.39405   0.05038   1.05927
C    -3.97305  -1.98576   0.53300
C    -1.27143   0.87268  -1.62884
N     0.00033   0.98327  -1.62514
C     0.52963   0.05168  -0.59586
C     0.96048  -1.23305  -1.33665
O     0.62147  -2.35868  -1.03475
O     1.78485  -0.96223  -2.34688
C     2.28541  -2.08110  -3.09514
C     1.78164   0.56546   0.10040
C     2.30922  -0.16683   1.17493
C     3.46325   0.26748   1.82916
C     4.10660   1.43917   1.41464
C     3.58908   2.16575   0.33890
C     2.43454   1.72852  -0.31902
H    -0.78342   2.52800   2.47651
H    -0.35223   2.48382   0.66525
H    -0.42998  -0.87005   3.08999
H    -2.13512  -0.70596   2.65142
H    -1.36203   0.54231   3.67485
H    -0.61026  -1.31220   0.66841
H    -2.00682  -1.04805  -1.18629
H    -3.37605   1.40973  -0.02097
H    -5.45087   1.14671   0.98811
H    -5.47929  -0.23360   2.12316
H    -6.27697  -0.37911   0.55369
H    -3.96813  -2.31914   1.58559
H    -3.05360  -2.35564   0.05953
H    -4.83516  -2.48355   0.05593
H    -1.88346   1.44375  -2.33899
H     1.45631  -2.63471  -3.55863
H     2.93893  -1.65888  -3.86700
H     2.85544  -2.75505  -2.43953
H     1.81078  -1.08160   1.50410
H     3.86083  -0.30984   2.66731
H     5.00829   1.78197   1.92762
H     4.08600   3.08062   0.00670
H     2.03025   2.29288  -1.15873
