22
Generated by autodE on: 2022-10-23. E = -591.887713 Ha
C    -0.82589   2.91155  -0.25322
N    -0.64567   1.73287  -0.27022
C    -0.44567   0.44430  -0.13634
C    -1.63861  -0.40543  -0.25795
O    -1.66060  -1.62383  -0.16972
O    -2.75277   0.31919  -0.48256
C    -3.97548  -0.41392  -0.60601
C     0.92361  -0.03194   0.13892
C     1.23614  -1.40135   0.27164
C     2.54417  -1.80966   0.54025
C     3.57222  -0.87424   0.68438
C     3.27478   0.48649   0.55394
C     1.97246   0.90319   0.28328
H    -0.82835   3.67592  -1.04005
H    -3.92696  -1.11362  -1.45348
H    -4.75881   0.33333  -0.77995
H    -4.18847  -0.97579   0.31546
H     0.44887  -2.14300   0.16516
H     2.75802  -2.87699   0.63786
H     4.59355  -1.20005   0.89401
H     4.06454   1.23396   0.66200
H     1.76944   1.97089   0.18354
