23
Generated by autodE on: 2022-10-23. E = -351.521383 Ha
C     3.06425  -0.24974   2.20217
C     2.33090  -0.33185   1.07023
C     2.94325  -0.79178  -0.22817
C     0.91458   0.02863   1.09011
C     0.07376  -0.01106   0.02597
C    -1.32513   0.35823   0.09985
C    -2.22917   0.34413  -0.91215
C    -3.65376   0.75949  -0.67547
C    -1.92012  -0.07241  -2.32218
H     4.12557  -0.51299   2.21554
H     2.61677   0.08459   3.14330
H     2.43083  -1.68907  -0.61328
H     2.84988  -0.01770  -1.00794
H     4.00907  -1.02959  -0.10351
H     0.51764   0.35718   2.05824
H     0.46295  -0.33777  -0.94209
H    -1.67716   0.68247   1.08668
H    -4.34833  -0.06076  -0.93166
H    -3.92836   1.60658  -1.32959
H    -3.83329   1.05395   0.36896
H    -2.56433  -0.91875  -2.61962
H    -0.87459  -0.36810  -2.47738
H    -2.15285   0.74908  -3.02262
