33
Generated by autodE on: 2022-06-09. E = -910.643340 Ha
C    -0.63729   1.99488   3.24311
O    -0.94373   1.10521   2.15266
C    -0.17209   1.18622   1.08472
O     0.73902   1.97543   0.95371
C    -0.52019   0.13825   0.02149
C    -1.77412  -0.72143   0.31666
C    -2.20249  -1.49798  -0.94433
C    -1.10264  -2.58833  -1.09031
C    -0.17614  -2.31601   0.10754
C    -1.17445  -1.84764   1.18125
C     0.64988  -1.00869  -0.10217
C     1.65611  -0.92289   0.95561
N     2.41614  -0.89601   1.83068
N     1.24768  -0.79008  -1.42020
C     2.42343   0.08775  -1.47329
O     0.19645  -0.24940  -2.16925
N    -0.49231   0.73192  -1.30914
C    -0.17334   1.98937  -1.61031
N     0.00325   3.08017  -1.98821
H     0.38960   1.81771   3.59161
H    -1.35926   1.75831   4.03184
H    -0.74627   3.03883   2.91884
H    -2.57282  -0.12675   0.77162
H    -3.18818  -1.94728  -0.76014
H    -2.29198  -0.85379  -1.82734
H    -1.52153  -3.59803  -0.97510
H    -0.57876  -2.55385  -2.05205
H     0.47932  -3.15376   0.37418
H    -1.91298  -2.62346   1.42535
H    -0.70544  -1.49871   2.11138
H     2.28975   1.02705  -0.91487
H     3.28150  -0.45863  -1.06167
H     2.62195   0.30359  -2.52984
