9
Generated by autodE on: 2022-06-09. E = -317.442074 Ha
C    -2.29332   0.07541  -0.22418
N    -1.49259  -0.62095   0.72531
O    -0.24844  -0.46308   0.58362
N     0.22660   0.32343  -0.42418
C     1.55341   0.32906  -0.34047
N     2.72029   0.42285  -0.38041
H    -2.02679  -0.23621  -1.25256
H    -2.07865   1.16073  -0.17938
H    -3.34361  -0.13510  -0.00201
