33
Generated by autodE on: 2022-06-09. E = -910.554297 Ha. Imaginary frequency = -326.4 cm-1
C    -0.45725   2.82220   2.61384
O    -0.76658   1.64863   1.84525
C     0.26457   0.93039   1.40668
O     1.42919   1.19805   1.63884
C    -0.17451  -0.22866   0.59178
C    -1.55306  -0.86918   0.66825
C    -2.11871  -1.23541  -0.73457
C    -1.14388  -2.32860  -1.24671
C    -0.15559  -2.49347  -0.06735
C    -1.10710  -2.28524   1.14149
C     0.70312  -1.22652   0.10645
C     2.05514  -1.38395   0.52615
N     3.14690  -1.61223   0.85820
N     1.20651  -0.32710  -1.91489
C     2.31533   0.53982  -1.55601
O     0.07055   0.28775  -2.05236
N    -0.14286   1.30671  -1.15197
C    -1.33449   1.86084  -1.35269
N    -2.34245   2.45150  -1.42655
H     0.14981   3.51679   2.01595
H     0.08884   2.54743   3.52732
H    -1.42114   3.27745   2.86671
H    -2.25048  -0.31735   1.30498
H    -3.12933  -1.64022  -0.58584
H    -2.21537  -0.38158  -1.41201
H    -1.66137  -3.28535  -1.40310
H    -0.64148  -2.06325  -2.18328
H     0.43900  -3.41318  -0.09148
H    -1.93940  -3.00523   1.16937
H    -0.58438  -2.27857   2.10831
H     3.22289  -0.07068  -1.59267
H     2.23318   1.04542  -0.58539
H     2.36165   1.31705  -2.34083
