45
Generated by autodE on: 2022-06-01. E = -1565.599657 Ha
C    -1.79941   4.09293  -1.30148
O    -1.18403   3.02493  -0.56515
C    -1.67595   1.80443  -0.78584
O    -2.60541   1.55859  -1.53142
N    -1.00604   0.84438  -0.05717
N    -0.07356   1.20263   0.93154
C    -0.68794   1.53181   2.22648
C     0.90312   0.10530   0.89586
C     1.52749  -0.06748   2.21661
N     2.06669  -0.20403   3.23320
C     2.04917   0.39668  -0.08824
C     3.16697  -0.44841  -0.12153
C     4.21521  -0.19654  -1.00814
C     4.15932   0.90760  -1.86416
C     3.05554   1.76290  -1.81724
C     2.00607   1.51506  -0.92809
C     0.00944  -1.20098   0.50159
C    -0.18833  -2.04323   1.67394
N    -0.29465  -2.72932   2.60327
C     0.48940  -2.04099  -0.73120
C    -0.40423  -3.29247  -0.85388
C    -1.77355  -2.70817  -1.30124
C    -1.48829  -1.20033  -1.45375
C    -0.02257  -1.20459  -1.91936
C    -1.32841  -0.55180  -0.06305
Cl   -2.81100  -0.84477   1.00530
H    -2.86747   4.16514  -1.05267
H    -1.68069   3.93282  -2.38246
H    -1.27546   5.00475  -0.99341
H    -1.12995   0.66746   2.74822
H    -1.46964   2.27925   2.04177
H     0.07418   1.99333   2.86735
H     3.22544  -1.30688   0.55103
H     5.07979  -0.86365  -1.02501
H     4.97900   1.10543  -2.55861
H     3.00866   2.63533  -2.47283
H     1.15439   2.19161  -0.88817
H     1.55925  -2.26039  -0.69353
H     0.02158  -3.94821  -1.62599
H    -0.46200  -3.87554   0.07450
H    -2.08237  -3.11045  -2.27565
H    -2.58142  -2.90936  -0.58736
H    -2.20713  -0.65948  -2.07253
H     0.10575  -1.73770  -2.87143
H     0.41839  -0.20734  -2.01168
