27
Generated by autodE on: 2022-07-27. E = -740.778063 Ha
C    -2.74699   1.34370  -2.16680
O    -2.65474   0.34554  -1.14702
C    -1.75963   0.58101  -0.16716
O    -1.06710   1.59091  -0.12914
N    -1.82897  -0.42514   0.75937
N    -0.79842  -0.56098   1.57872
C    -1.18560  -0.94549   2.95067
C     0.48841  -0.41057   1.26199
C     1.43076  -0.41297   2.33082
N     2.24359  -0.39913   3.16466
C     1.02136  -0.28886  -0.10583
C     0.47940  -1.04001  -1.16681
C     1.03537  -0.94653  -2.44037
C     2.12584  -0.10064  -2.67733
C     2.67069   0.64167  -1.62625
C     2.12732   0.54500  -0.34484
H    -3.50020   0.98204  -2.87716
H    -3.06226   2.30988  -1.74533
H    -1.77909   1.46841  -2.67530
H    -1.32145  -0.02940   3.54285
H    -2.13816  -1.47833   2.87401
H    -0.42421  -1.58770   3.40504
H    -0.37169  -1.69980  -0.99646
H     0.61398  -1.53884  -3.25534
H     2.55042  -0.02411  -3.68071
H     3.52320   1.30083  -1.80275
H     2.55509   1.12652   0.47432
