45
Generated by autodE on: 2022-06-01. E = -1565.546755 Ha. Imaginary frequency = -293.3 cm-1
C    -2.07816   4.26475  -0.95001
O    -1.27861   3.22550  -0.36869
C    -1.55665   1.96844  -0.76459
O    -2.41848   1.69182  -1.58160
N    -0.71315   1.03609  -0.21809
N    -0.07415   1.27298   0.92999
C    -0.82665   1.67487   2.13562
C     1.10642   0.63582   1.06113
C     1.56164   0.37108   2.38802
N     1.95885   0.11895   3.45176
C     2.09804   0.53246  -0.02325
C     3.08390  -0.46799   0.03106
C     4.04422  -0.56199  -0.97548
C     4.04071   0.34923  -2.03584
C     3.07963   1.36665  -2.07712
C     2.11202   1.46286  -1.08000
C    -0.22611  -1.57114   0.49427
C    -0.22054  -2.00625   1.83408
N    -0.18162  -2.38636   2.93872
C     0.45366  -2.37228  -0.62171
C    -0.50267  -3.56975  -0.90483
C    -1.74724  -2.87326  -1.52803
C    -1.33712  -1.36963  -1.57191
C     0.17086  -1.48322  -1.84826
C    -1.31014  -0.90226  -0.12434
Cl   -2.84209  -0.70698   0.73125
H    -1.95480   4.28092  -2.04241
H    -3.13941   4.12053  -0.70154
H    -1.71190   5.20185  -0.51480
H    -1.71960   2.22405   1.82720
H    -0.19481   2.32454   2.75297
H    -1.11917   0.78272   2.70721
H     3.08429  -1.18366   0.85543
H     4.79680  -1.35202  -0.93172
H     4.79145   0.27345  -2.82557
H     3.08516   2.09284  -2.89281
H     1.37067   2.26056  -1.11724
H     1.49562  -2.64686  -0.42398
H    -0.03004  -4.26291  -1.61678
H    -0.73676  -4.13136   0.01078
H    -1.93486  -3.22234  -2.55328
H    -2.66653  -3.02902  -0.94672
H    -1.93615  -0.73807  -2.23400
H     0.38103  -2.00383  -2.79341
H     0.68744  -0.52029  -1.83633
