34
Generated by autodE on: 2022-05-30. E = -1751.159340 Ha
C    -0.81578   3.49291   0.51153
C    -0.80301   2.51557  -0.61412
O    -1.62481   2.45660  -1.50412
C     0.36002   1.51375  -0.63342
O     1.61408   2.25043  -0.82297
C     2.57547   1.45193  -0.29241
O     3.74768   1.69793  -0.30969
C     1.79947   0.22539   0.24651
C     2.44696  -0.47237   1.43512
C     3.62124  -1.34100   1.11987
O     1.99829  -0.29307   2.54725
O     0.57175   0.87708   0.60133
C     1.44376  -0.56058  -1.05087
C     0.64111  -1.90362  -0.99332
O    -0.12105  -1.78281  -2.19880
C    -0.83352  -0.58557  -1.83509
C    -1.39701  -0.98702  -0.47145
C    -2.63532  -0.45436   0.16108
F    -3.20877  -1.35094   0.97706
F    -3.54488  -0.10083  -0.76312
F    -2.39660   0.65034   0.90925
C    -0.46475  -1.79761   0.05097
Cl   -0.36902  -2.52187   1.59822
C     0.37868   0.39023  -1.67699
H    -1.67168   4.17214   0.41713
H     0.13006   4.05773   0.51603
H    -0.86228   2.94243   1.46451
H     4.32882  -0.80364   0.46940
H     3.26982  -2.22350   0.55854
H     4.11120  -1.66384   2.04694
H     2.32905  -0.70663  -1.67910
H     1.24799  -2.81346  -0.97220
H    -1.56259  -0.29921  -2.59716
H     0.66056   0.78144  -2.65959
