18
Generated by autodE on: 2022-05-30. E = -646.742293 Ha
C     3.25290   0.86085   0.27144
C     2.57555  -0.26609  -0.43224
O     3.11300  -1.13960  -1.07952
C     1.07510  -0.31521  -0.32203
O     0.34758  -1.21994  -0.87290
C    -1.09473  -0.91483  -0.52553
O    -1.96225  -1.63557  -0.93514
C    -0.94992   0.24525   0.25434
C    -1.90738   1.08877   0.93418
C    -3.35187   0.68152   0.80515
O    -1.54143   2.07345   1.57546
O     0.40093   0.56079   0.34184
H     2.87099   1.82228  -0.10908
H     3.01704   0.82284   1.34768
H     4.33599   0.79109   0.11509
H    -3.65170   0.65255  -0.25456
H    -3.97897   1.39759   1.35160
H    -3.50268  -0.33230   1.20946
