16
Generated by autodE on: 2022-05-30. E = -1104.339467 Ha
F     2.23317  -1.29038   0.66182
C     1.47307  -0.70523  -0.28807
F     2.19734   0.28854  -0.82202
F     1.29215  -1.63581  -1.25332
C     0.17358  -0.25054   0.25468
C    -0.47764   0.91462   0.15904
Cl   -0.05120   2.39668  -0.58045
C    -1.88001   0.65804   0.77114
C    -2.61971  -0.27090  -0.21789
C    -1.98113  -1.44044  -0.12551
C    -0.86226  -1.20160   0.91327
O    -1.51568  -0.27447   1.79730
H    -2.40732   1.53659   1.15566
H    -3.43990   0.03408  -0.86605
H    -2.13339  -2.36785  -0.67585
H    -0.45385  -2.07002   1.44012
