34
Generated by autodE on: 2022-05-30. E = -1751.073655 Ha. Imaginary frequency = -346.5 cm-1
C    -0.32784   3.98310  -1.60543
C    -0.59396   2.87001  -0.64613
O    -1.62243   2.70247  -0.02424
C     0.52141   1.87781  -0.46007
O     1.77768   2.16429  -0.83451
C     2.63236   1.21145  -0.20666
O     3.80984   1.15794  -0.46823
C     1.74370   0.50003   0.66362
C     2.02378  -0.37543   1.79963
C     3.33329  -1.10960   1.77185
O     1.20244  -0.48411   2.70284
O     0.52356   1.10919   0.61427
C     1.10152  -0.54207  -1.77772
C     0.34574  -1.87486  -1.61251
O    -0.76992  -1.64133  -2.49710
C    -1.19910  -0.41861  -1.84772
C    -1.35687  -0.92824  -0.40015
C    -2.39971  -0.53556   0.58976
F    -3.09582  -1.61173   1.01474
F    -3.28496   0.32142   0.05539
F    -1.89230   0.04138   1.69451
C    -0.39185  -1.85018  -0.27159
Cl    0.00940  -2.87355   1.03584
C     0.11399   0.40246  -1.98393
H    -0.01762   3.57997  -2.58301
H     0.50949   4.59376  -1.22923
H    -1.22879   4.59891  -1.71343
H     4.17089  -0.40495   1.65201
H     3.35583  -1.78826   0.90368
H     3.44902  -1.68619   2.69834
H     2.15892  -0.48330  -2.02677
H     0.90219  -2.78555  -1.85115
H    -2.09177   0.00845  -2.31181
H     0.19066   1.22613  -2.69361
