54
Generated by autodE on: 2022-06-25. E = -1149.016423 Ha
C     3.31451   3.17023  -0.39972
N     2.43079   2.08336  -0.03060
C     2.88785   0.87809   0.31634
O     4.08057   0.59749   0.45603
C     1.79113  -0.20945   0.51050
C     2.29826  -1.05995   1.61863
N     2.65988  -1.66295   2.54148
N     0.50782   0.38844   0.83624
C     0.36497   0.88799   2.19780
C    -0.61398  -0.34418   0.23135
C    -1.00080  -1.47839   1.23513
O    -0.34967  -2.52320   1.33698
N    -1.99138  -1.20540   2.10315
C    -2.28655  -2.09173   3.21175
C    -1.81021   0.57601  -0.03218
C    -3.04952   0.01942  -0.39314
C    -4.13402   0.83265  -0.72792
C    -4.00387   2.22440  -0.70348
C    -2.77803   2.78941  -0.34410
C    -1.69238   1.97238  -0.01589
C     0.01858  -0.85249  -1.13674
C    -0.65778  -2.11819  -1.67639
C    -0.17706   0.23288  -2.21604
C     1.57298  -1.05760  -0.83183
C     2.47714  -0.55036  -1.97100
C     1.97824  -2.52847  -0.63296
H     3.78356   2.99236  -1.38216
H     4.11502   3.28237   0.34589
H     2.73726   4.10192  -0.44652
H     1.42412   2.16570  -0.14882
H     0.39050   0.08909   2.96138
H    -0.58307   1.42928   2.30168
H     1.18063   1.59156   2.41718
H    -2.49439  -0.32889   2.02648
H    -3.11705  -1.67030   3.79123
H    -1.41143  -2.20783   3.87168
H    -2.57435  -3.09258   2.85382
H    -3.17478  -1.06371  -0.41563
H    -5.08517   0.37404  -1.00837
H    -4.85226   2.86260  -0.96137
H    -2.65961   3.87533  -0.32161
H    -0.74052   2.43422   0.24256
H    -0.16739  -2.43025  -2.61060
H    -0.63197  -2.95634  -0.97381
H    -1.70923  -1.90641  -1.91970
H    -1.24247   0.36961  -2.43738
H     0.30740  -0.07694  -3.15014
H     0.23414   1.20701  -1.92163
H     2.37022   0.51778  -2.18651
H     3.52886  -0.74016  -1.71986
H     2.25015  -1.10736  -2.89091
H     1.85256  -3.07459  -1.57789
H     1.38840  -3.02318   0.14175
H     3.04339  -2.58463  -0.36428
