18
Generated by autodE on: 2022-06-25. E = -235.968070 Ha
C     1.50169   0.79351  -1.00050
C     0.67074  -0.05873  -0.07155
C     1.51883  -1.05731   0.67901
C    -0.67077   0.05869   0.07150
C    -1.50168  -0.79353   1.00050
C    -1.51881   1.05735  -0.67898
H     0.92877   1.53911  -1.56459
H     2.03677   0.15769  -1.72866
H     2.28473   1.32809  -0.43320
H     2.29279  -0.53562   1.27036
H     2.06541  -1.70554  -0.02931
H     0.95690  -1.70612   1.36140
H    -0.92866  -1.53885   1.56485
H    -2.28450  -1.32847   0.43322
H    -2.03704  -0.15771   1.72846
H    -2.29341   0.53579  -1.26960
H    -0.95694   1.70557  -1.36198
H    -2.06464   1.70615   0.02941
