36
Generated by autodE on: 2022-07-27. E = -912.998166 Ha
C     4.55245   1.54276  -0.54679
N     3.16710   1.24877  -0.23891
C     2.82086   0.65675   0.93799
O     3.67774   0.38121   1.79996
C     1.41465   0.31953   1.14089
C     1.12349  -0.70987   2.04663
N     0.88067  -1.56290   2.81416
N     0.36716   0.82229   0.33794
C     0.24589   2.29042   0.24408
C    -0.51885   0.00876  -0.20848
C    -0.10298  -1.43588  -0.42282
O     0.95143  -1.70453  -1.00352
N    -0.97592  -2.35249   0.01330
C    -0.68783  -3.77237  -0.06194
C    -1.83990   0.42780  -0.67918
C    -2.65645   1.30280   0.06581
C    -3.92265   1.64747  -0.40320
C    -4.38859   1.13589  -1.61916
C    -3.58801   0.26086  -2.36190
C    -2.32825  -0.10252  -1.89224
H     4.59322   2.15920  -1.45426
H     5.01885   2.09984   0.27828
H     5.14793   0.62825  -0.71540
H     2.51436   1.19977  -1.01389
H    -0.27952   2.56795  -0.67593
H     1.25550   2.71129   0.23829
H    -0.28729   2.67430   1.12276
H    -1.80007  -2.03729   0.51671
H    -1.57646  -4.33209   0.25307
H    -0.42734  -4.06035  -1.09087
H     0.15590  -4.03603   0.59640
H    -2.31380   1.68814   1.02611
H    -4.55267   2.31556   0.18783
H    -5.37996   1.41300  -1.98450
H    -3.94881  -0.14241  -3.31036
H    -1.70486  -0.78315  -2.47557
