54
Generated by autodE on: 2022-06-25. E = -1148.934270 Ha. Imaginary frequency = -270.3 cm-1
C     4.04838   2.57910   0.26211
N     2.79345   1.92132   0.56740
C     2.78190   0.70285   1.16821
O     3.83875   0.19642   1.59447
C     1.51721  -0.04179   1.25115
C     1.65224  -1.29068   1.90123
N     1.82710  -2.32185   2.42690
N     0.26806   0.56540   1.04486
C     0.05788   1.91315   1.62415
C    -0.77307  -0.15262   0.48461
C    -1.06453  -1.48709   1.19909
O    -1.29635  -2.56837   0.66065
N    -1.17322  -1.32538   2.53520
C    -1.36319  -2.46265   3.41144
C    -2.00981   0.52730   0.04376
C    -3.23639  -0.17824   0.03188
C    -4.40843   0.41163  -0.43834
C    -4.39715   1.72442  -0.91684
C    -3.19332   2.43505  -0.92854
C    -2.01851   1.84746  -0.46381
C     0.22668  -0.74090  -1.51052
C    -0.82950  -1.65295  -2.10006
C     0.25832   0.60788  -2.19021
C     1.46247  -1.28242  -1.09353
C     2.76399  -0.63583  -1.48262
C     1.59873  -2.73854  -0.76460
H     4.63181   2.02862  -0.49695
H     4.66852   2.66706   1.16537
H     3.83748   3.58660  -0.11925
H     1.98416   2.20282   0.02800
H     0.26074   2.73657   0.92926
H    -0.98113   1.99608   1.96393
H     0.71559   2.01687   2.49418
H    -0.88597  -0.44430   2.94811
H    -0.47845  -3.12133   3.39414
H    -2.23920  -3.04949   3.09958
H    -1.52001  -2.10180   4.43542
H    -3.27893  -1.20836   0.38258
H    -5.33746  -0.16272  -0.42949
H    -5.31599   2.18775  -1.28310
H    -3.16328   3.45783  -1.31080
H    -1.10025   2.42385  -0.51624
H    -1.83553  -1.21495  -2.01892
H    -0.61344  -1.75872  -3.17985
H    -0.85255  -2.64958  -1.65512
H     0.82833   0.53897  -3.13338
H    -0.75247   0.94554  -2.45123
H     0.73697   1.38354  -1.57707
H     3.57926  -0.91622  -0.80178
H     3.03794  -1.01471  -2.48730
H     2.72206   0.45462  -1.55175
H     1.73954  -3.30240  -1.70666
H     2.48770  -2.92391  -0.14582
H     0.72154  -3.14836  -0.25361
