55
Generated by autodE on: 2022-06-25. E = -1282.286043 Ha
C     1.25931   0.60853   3.18463
O     1.14864  -0.00612   1.89227
C     1.84352   0.55368   0.90771
O     2.63659   1.45928   1.08381
C     1.53093  -0.00234  -0.48592
C     2.85940  -0.29469  -1.25960
C     4.11503  -0.59616  -0.49208
O     2.83403  -0.34810  -2.47539
C     0.66556   1.03732  -1.31079
C    -0.76866   0.54623  -1.09624
C    -1.35680   1.02613   0.24327
C    -0.86438   2.39237   0.65013
C    -1.42542   3.08395   1.81834
N    -2.41545   2.43410   2.48421
O    -1.03268   4.20227   2.21227
C     0.17301   2.99300   0.00022
N     0.85980   2.43417  -1.02847
C     2.03504   3.07823  -1.58841
C    -0.59080  -0.99592  -1.18617
C    -0.49134  -1.46219  -2.65380
C    -1.73977  -1.72042  -0.47547
C    -1.61322  -2.18758   0.84191
C    -2.68984  -2.79080   1.49919
C    -3.92104  -2.93310   0.85338
C    -4.06300  -2.46437  -0.45618
C    -2.98264  -1.86750  -1.11258
N     0.68539  -1.18398  -0.46991
C     1.30501  -2.49156  -0.47209
H     0.56481   0.06638   3.83614
H     0.97630   1.66944   3.12100
H     2.28742   0.52407   3.56476
H     4.58309   0.35423  -0.19147
H     4.81067  -1.15077  -1.13516
H     3.90591  -1.15823   0.42912
H     0.95131   0.86877  -2.35424
H    -1.39783   0.90158  -1.92312
H    -1.12034   0.30422   1.03769
H    -2.45540   1.02287   0.15621
H    -2.71845   1.50118   2.23552
H    -2.78755   2.85618   3.32772
H     0.49836   3.98932   0.30507
H     1.98556   4.15915  -1.40175
H     2.96546   2.68891  -1.14238
H     2.07467   2.91024  -2.67536
H     0.40335  -1.04420  -3.13415
H    -1.36898  -1.15281  -3.23745
H    -0.42002  -2.55873  -2.70521
H    -0.66269  -2.06369   1.35983
H    -2.56397  -3.14767   2.52463
H    -4.76360  -3.40362   1.36601
H    -5.02116  -2.56184  -0.97286
H    -3.12123  -1.50098  -2.13083
H     2.00663  -2.58075   0.37259
H     1.85605  -2.73403  -1.40238
H     0.53510  -3.26373  -0.33817
