35
Generated by autodE on: 2022-06-25. E = -824.538518 Ha
C    -3.45731   2.07339  -0.12189
O    -2.37301   1.20919  -0.45662
C    -2.12646   0.17532   0.40905
O    -2.78546   0.05581   1.44343
C    -1.04826  -0.64930  -0.04021
C    -0.46399  -1.74593   0.66591
C    -1.02942  -2.13855   2.01594
O     0.51088  -2.38552   0.21094
N    -0.49132  -0.38546  -1.33947
C    -1.32470  -0.72142  -2.50253
C     0.78168  -0.12097  -1.48514
C     1.42399  -0.24338  -2.82509
C     1.58048   0.36571  -0.34350
C     2.84840  -0.17854  -0.08535
C     3.60983   0.29756   0.98372
C     3.12367   1.33618   1.78286
C     1.87035   1.89924   1.51265
C     1.09514   1.41203   0.46209
H    -4.40444   1.51618  -0.05895
H    -3.51614   2.81498  -0.92849
H    -3.27815   2.58166   0.83769
H    -0.47453  -3.01369   2.38057
H    -2.10188  -2.37257   1.95759
H    -0.92537  -1.31189   2.73546
H    -2.37405  -0.68238  -2.19810
H    -1.15395  -0.01196  -3.32155
H    -1.08477  -1.74049  -2.84271
H     2.51118  -0.13702  -2.74826
H     1.17495  -1.20304  -3.30204
H     1.04921   0.55927  -3.48344
H     3.22598  -0.99300  -0.70613
H     4.58758  -0.14298   1.19035
H     3.72419   1.71391   2.61363
H     1.49517   2.72286   2.12403
H     0.12236   1.85465   0.24571
