55
Generated by autodE on: 2022-06-25. E = -1282.218390 Ha. Imaginary frequency = -387.7 cm-1
C     1.87427   0.97207   2.77610
O     1.47372   0.24872   1.61583
C     2.41462   0.07919   0.63613
O     3.51799   0.62358   0.75626
C     1.95341  -0.75161  -0.44592
C     2.85786  -1.25092  -1.44394
C     4.16171  -0.52629  -1.73186
O     2.61084  -2.28676  -2.10423
C     0.45442   1.47329  -1.43768
C    -0.79658   0.82646  -1.26463
C    -1.75401   1.46783  -0.27450
C    -1.03378   2.22920   0.80807
C    -1.62895   2.50299   2.14397
N    -2.85780   1.99228   2.36957
O    -1.02838   3.15837   3.01069
C     0.20191   2.70802   0.57102
N     0.89664   2.42573  -0.60871
C     2.17533   3.10259  -0.83230
C    -0.40690  -1.16737  -1.06576
C    -0.20755  -1.44667  -2.54724
C    -1.70193  -1.63607  -0.47685
C    -1.98271  -1.36742   0.87946
C    -3.19229  -1.75050   1.45525
C    -4.15670  -2.41028   0.68534
C    -3.89627  -2.67873  -0.66096
C    -2.68295  -2.29246  -1.23826
N     0.70399  -1.40934  -0.24604
C     0.73747  -2.51369   0.71571
H     2.62357   0.40538   3.35169
H     0.96844   1.11162   3.37843
H     2.29592   1.95375   2.51905
H     4.55330  -0.89937  -2.68925
H     4.03702   0.56452  -1.77331
H     4.90181  -0.73233  -0.94288
H     1.07296   1.27760  -2.31235
H    -1.27117   0.62072  -2.22414
H    -2.42119   0.70249   0.14301
H    -2.42348   2.16103  -0.81899
H    -3.27220   2.11841   3.28747
H    -3.33273   1.39350   1.70518
H     0.73999   3.31629   1.29612
H     2.84332   2.93022   0.02036
H     2.64002   2.70638  -1.74191
H     2.00353   4.18234  -0.94974
H    -1.08785  -1.17369  -3.14223
H     0.66092  -0.90657  -2.93797
H    -0.00706  -2.52083  -2.67877
H    -1.24493  -0.83470   1.48020
H    -3.38637  -1.52198   2.50566
H    -5.10737  -2.71015   1.13241
H    -4.64139  -3.19558  -1.27025
H    -2.50257  -2.51950  -2.28855
H    -0.10972  -3.19482   0.57369
H     1.65810  -3.09370   0.54396
H     0.73711  -2.17211   1.76386
