49
Generated by autodE on: 2022-06-04. E = -1242.214508 Ha
C     3.67784   0.62567  -0.85358
C     2.57303   0.33404  -1.82364
O     2.78262   0.20087  -3.02670
C     1.18120   0.17385  -1.35111
C     0.64498   0.14707  -0.11578
C     1.31662   0.44435   1.16924
C     1.75924  -0.56906   2.03141
C     2.35068  -0.23815   3.25380
C     2.49788   1.10022   3.62762
C     2.05380   2.11314   2.77163
C     1.46586   1.78858   1.54881
C    -0.86264  -0.13513  -0.17726
C    -1.56069   0.99550   0.59014
C    -1.95885   2.16123  -0.07362
C    -2.48501   3.24191   0.64157
C    -2.60990   3.17178   2.03136
C    -2.20182   2.01408   2.70237
C    -1.67748   0.93617   1.98760
C    -1.22543  -1.53963   0.32792
C    -2.52530  -1.81225   0.77901
C    -2.90094  -3.11310   1.12416
C    -1.98252  -4.16201   1.02298
C    -0.68958  -3.90224   0.56004
C    -0.31708  -2.60243   0.20909
N    -1.13786  -0.06047  -1.63004
C     0.09554  -0.11418  -2.39735
C     0.07409   0.92014  -3.46448
N    -0.01096   1.75458  -4.26450
C     0.33635  -1.43800  -3.02938
N     0.47572  -2.49971  -3.47378
H     3.72321  -0.15323  -0.07770
H     3.49005   1.57868  -0.33684
H     4.62947   0.67348  -1.39788
H     1.65064  -1.61522   1.74717
H     2.69759  -1.03446   3.91608
H     2.95833   1.35425   4.58512
H     2.16231   3.16176   3.05744
H     1.10924   2.57576   0.88233
H    -1.84717   2.22015  -1.15637
H    -2.79453   4.14353   0.10757
H    -3.01978   4.01595   2.59088
H    -2.28672   1.95081   3.78972
H    -1.34596   0.04660   2.52426
H    -3.25348  -1.00422   0.85920
H    -3.91806  -3.30573   1.47347
H    -2.27460  -5.17795   1.29859
H     0.03513  -4.71437   0.46733
H     0.68936  -2.42297  -0.17192
H    -1.82829  -0.73961  -1.94035
