49
Generated by autodE on: 2022-06-04. E = -1242.131071 Ha. Imaginary frequency = -313.3 cm-1
C     4.14257   0.34694  -1.52090
C     2.78064   0.56497  -2.12766
O     2.62697   1.01504  -3.25331
C     1.65842   0.21272  -1.25049
C     1.33770   0.02517  -0.04995
C     1.54718   0.04529   1.36287
C     1.51459  -1.12123   2.15540
C     1.67286  -1.03235   3.53820
C     1.86458   0.20861   4.15584
C     1.91266   1.36870   3.37455
C     1.75817   1.29457   1.99154
C    -1.11029  -0.45540  -0.36452
C    -1.65143   0.82408   0.13858
C    -2.49965   1.59343  -0.68124
C    -3.06146   2.77923  -0.20910
C    -2.79559   3.21380   1.09250
C    -1.98499   2.43819   1.92875
C    -1.42873   1.24820   1.46381
C    -1.27896  -1.69983   0.41302
C    -2.17006  -1.77411   1.50047
C    -2.30254  -2.95543   2.23104
C    -1.55841  -4.08688   1.88604
C    -0.67494  -4.03025   0.80195
C    -0.53021  -2.84913   0.07901
N    -0.87046  -0.61763  -1.68586
C    -0.08689   0.19617  -2.50758
C    -0.20809   1.62242  -2.53634
N    -0.24013   2.78479  -2.58745
C     0.22752  -0.40015  -3.77124
N     0.48685  -0.93067  -4.77489
H     4.27378  -0.72241  -1.28963
H     4.21919   0.89459  -0.56831
H     4.92345   0.68058  -2.21687
H     1.36326  -2.09054   1.68293
H     1.64385  -1.94404   4.13961
H     1.98156   0.27076   5.24003
H     2.06791   2.34181   3.84652
H     1.77768   2.20005   1.38295
H    -2.74057   1.24897  -1.68739
H    -3.71636   3.36168  -0.86087
H    -3.23219   4.14499   1.46067
H    -1.78685   2.75870   2.95392
H    -0.82164   0.64358   2.13274
H    -2.77841  -0.91047   1.76648
H    -3.00005  -2.99282   3.07060
H    -1.66290  -5.00960   2.46107
H    -0.07925  -4.90479   0.53217
H     0.20764  -2.80954  -0.72534
H    -0.81214  -1.59249  -1.97901
