71
Generated by autodE on: 2022-06-12. E = -1783.098188 Ha
C     3.66954   3.82162   0.90699
O     2.76800   2.71160   0.98028
C     3.31647   1.48572   1.10459
O     4.52396   1.31765   1.15936
C     2.26420   0.46976   1.15891
C     2.25040  -0.85507   0.83254
C     3.25436  -1.81735   0.38692
C     2.83187  -2.95568  -0.33773
C     3.75512  -3.89705  -0.79009
C     5.11667  -3.73632  -0.51350
C     5.54690  -2.62411   0.21795
C     4.63035  -1.67168   0.66168
C     0.75768  -1.20795   0.83909
O     0.24043  -0.35235   1.85671
C     0.79541   0.85758   1.33547
C     0.20439   0.92317  -0.10375
C     0.17699  -0.58510  -0.46829
C    -1.30371  -0.92750  -0.77696
C    -1.53077  -0.85759  -2.31664
C    -2.81516  -1.38918  -2.89836
O    -0.72415  -0.28430  -3.03290
C    -1.68019  -2.28572  -0.21043
C    -2.25642  -2.41941   1.05886
C    -2.48136  -3.68656   1.60473
C    -2.12463  -4.83544   0.89259
C    -1.53697  -4.70918  -0.37032
C    -1.31669  -3.44231  -0.91588
N    -2.05391   0.18908  -0.18136
C    -3.50353   0.23775  -0.28631
C    -1.26473   1.42157  -0.22837
C    -1.49566   2.16902  -1.57266
O    -2.59905   2.33675  -2.05168
O    -0.38574   2.62474  -2.15125
C    -0.53836   3.27247  -3.42393
C    -1.62672   2.38800   0.90331
C    -2.15607   1.90436   2.10749
C    -2.39871   2.77275   3.17447
C    -2.10959   4.13561   3.05541
C    -1.57276   4.62265   1.86044
C    -1.33311   3.75421   0.79190
H     4.32063   3.73388   0.02490
H     4.29092   3.87562   1.81281
H     3.04041   4.71558   0.82498
H     1.77468  -3.10289  -0.56304
H     3.40839  -4.76344  -1.35779
H     5.83903  -4.47798  -0.86233
H     6.60776  -2.49756   0.44659
H     4.96852  -0.80601   1.22653
H     0.50931  -2.25230   1.03690
H     0.59418   1.71016   1.98672
H     0.85669   1.52001  -0.74153
H     0.80006  -0.83620  -1.33078
H    -3.45958  -1.89145  -2.16992
H    -3.35630  -0.54592  -3.35628
H    -2.56209  -2.09272  -3.70698
H    -2.51056  -1.52593   1.62888
H    -2.93296  -3.77504   2.59574
H    -2.29937  -5.82510   1.32110
H    -1.24590  -5.59966  -0.93239
H    -0.84202  -3.35609  -1.89676
H    -3.88783   0.45184  -1.29491
H    -3.92604  -0.71971   0.04784
H    -3.88737   1.02187   0.38005
H     0.46882   3.57868  -3.72819
H    -1.19517   4.14898  -3.33318
H    -0.96070   2.56693  -4.15339
H    -2.36124   0.83918   2.20987
H    -2.81337   2.37976   4.10585
H    -2.29971   4.81414   3.89027
H    -1.33685   5.68433   1.75630
H    -0.89716   4.15053  -0.12735
