71
Generated by autodE on: 2022-06-12. E = -1782.993634 Ha. Imaginary frequency = -200.4 cm-1
C     4.35829   3.62422   0.88458
O     3.34683   2.61126   0.86623
C     3.75095   1.34339   1.09155
O     4.92091   1.06455   1.30483
C     2.61164   0.43245   1.03425
C     2.51476  -0.90151   0.77069
C     3.46314  -1.98104   0.53111
C     3.03421  -3.11102  -0.20298
C     3.90821  -4.16400  -0.46799
C     5.22172  -4.12456   0.01111
C     5.65522  -3.02038   0.75347
C     4.79093  -1.95724   1.00970
C     0.98445  -1.12902   0.60469
O     0.47200  -0.18059   1.54870
C     1.15281   0.95271   0.99051
C     0.71349   0.86855  -0.47368
C     0.58001  -0.47668  -0.72763
C    -1.73549  -0.91399  -0.97508
C    -1.77963  -0.93150  -2.49695
C    -3.12391  -0.58088  -3.08833
O    -0.91817  -1.48285  -3.16703
C    -1.87183  -2.27125  -0.38512
C    -1.73924  -2.48072   1.00766
C    -1.82558  -3.75439   1.56465
C    -2.03598  -4.87177   0.75066
C    -2.15630  -4.69102  -0.62942
C    -2.07642  -3.41549  -1.18950
N    -2.25987   0.16652  -0.29592
C    -3.32881  -0.06415   0.71148
C    -1.87104   1.47989  -0.46263
C    -1.32937   1.97503  -1.71360
O    -1.21668   1.34817  -2.76762
O    -0.92421   3.26471  -1.63570
C    -0.37231   3.83179  -2.82502
C    -2.24679   2.46042   0.59025
C    -1.83351   2.28129   1.92321
C    -2.19349   3.19862   2.91200
C    -2.97693   4.31094   2.58958
C    -3.40145   4.49695   1.26949
C    -3.04056   3.58115   0.28061
H     5.10844   3.43766   0.10204
H     4.85738   3.65562   1.86430
H     3.84107   4.57169   0.69292
H     2.01337  -3.16096  -0.58499
H     3.56047  -5.02221  -1.04737
H     5.90390  -4.95408  -0.18907
H     6.67738  -2.98800   1.13787
H     5.13191  -1.09729   1.58187
H     0.63543  -2.14163   0.81314
H     0.94857   1.87593   1.53872
H     0.93789   1.65518  -1.18744
H     0.68290  -0.97778  -1.68680
H    -3.75131  -1.48672  -3.01210
H    -3.63096   0.22667  -2.54726
H    -3.00867  -0.32209  -4.14949
H    -1.53784  -1.63755   1.66335
H    -1.71312  -3.87397   2.64476
H    -2.09948  -5.87133   1.18645
H    -2.31978  -5.55072  -1.28345
H    -2.17635  -3.32261  -2.26948
H    -4.05636   0.74960   0.61865
H    -3.82808  -1.00852   0.47984
H    -2.95984  -0.08833   1.74083
H    -0.13462   4.87377  -2.57883
H    -1.09730   3.79656  -3.65172
H     0.54291   3.30023  -3.12623
H    -1.23125   1.41210   2.18495
H    -1.85722   3.04372   3.93995
H    -3.25805   5.02875   3.36376
H    -4.02140   5.35811   1.00899
H    -3.38206   3.72930  -0.74520
