49
Generated by autodE on: 2022-06-10. E = -1521.547932 Ha
C    -1.76182   2.75969  -3.36154
N    -1.59544   1.72306  -2.36253
C    -1.11713   1.98841  -1.14324
O    -0.85398   3.11983  -0.73144
C    -0.93278   0.75080  -0.23130
C    -1.49054   1.16687   1.15600
O    -0.75755   1.51617   2.08135
N    -2.82872   1.14855   1.21902
C    -3.54557   1.38395   2.45655
O    -1.67827  -0.30813  -0.77983
C    -1.18705  -1.58899  -0.33207
C    -1.58189  -2.58790  -1.41414
C    -1.92492  -1.95356   0.96600
C     0.38501  -1.35283  -0.18380
C     0.96009  -2.21246   0.95140
F     0.61459  -3.50653   0.71969
F     0.50885  -1.90819   2.17478
F     2.29901  -2.21019   1.02423
C     1.14032  -1.69222  -1.54683
C     2.62082  -1.36722  -1.41664
C     2.69507  -0.03274  -1.44679
C     1.25936   0.43300  -1.59027
O     0.67348  -0.61363  -2.35953
C     0.54417   0.22271  -0.17573
C     1.41417   0.89628   0.88032
O     1.95879   0.37045   1.82264
O     1.61628   2.17098   0.53355
C     2.37727   2.97450   1.44214
H    -2.33848   2.35637  -4.20284
H    -2.30037   3.61863  -2.93575
H    -0.78866   3.11821  -3.73647
H    -1.72989   0.74592  -2.60468
H    -3.31599   0.69957   0.44834
H    -3.08962   2.22249   2.99935
H    -4.59047   1.63046   2.22915
H    -3.52523   0.49482   3.11005
H    -2.67810  -2.67016  -1.43623
H    -1.16746  -3.58029  -1.19198
H    -1.24504  -2.26530  -2.40648
H    -3.00207  -1.87509   0.76437
H    -1.67718  -1.29683   1.80611
H    -1.70915  -2.98681   1.26477
H     0.88755  -2.66634  -1.97021
H     3.41357  -2.09783  -1.26995
H     3.55917   0.61757  -1.31902
H     1.09662   1.41659  -2.03679
H     3.39336   2.57142   1.55915
H     2.41354   3.97669   1.00000
H     1.87875   3.00917   2.42174
