27
Generated by autodE on: 2022-06-10. E = -648.755664 Ha
C     0.08185   3.85409   0.12716
N     0.45173   2.45819   0.03965
C    -0.49047   1.48207  -0.08496
O    -1.69908   1.79116  -0.25608
C    -0.04264   0.11027  -0.06323
O     1.31012  -0.03234   0.28333
C     2.09251  -0.93929  -0.17620
C     1.71520  -1.80634  -1.30046
C     3.42404  -1.00678   0.45834
C    -0.88001  -1.05079   0.14837
O    -0.42091  -2.13626   0.57665
N    -2.20562  -0.90517  -0.14299
C    -3.16697  -1.88830   0.30746
H     0.99334   4.46533   0.10564
H    -0.55333   4.14583  -0.72279
H    -0.47256   4.08937   1.05314
H     1.39935   2.18979   0.27697
H     2.61307  -2.15931  -1.82375
H     1.03493  -1.25344  -1.97212
H     1.14096  -2.67092  -0.92649
H     3.54973  -0.22027   1.21263
H     4.20677  -0.94090  -0.31499
H     3.53793  -1.99744   0.93363
H    -2.49764   0.06537  -0.27894
H    -2.88237  -2.89458  -0.03295
H    -4.15149  -1.64699  -0.11533
H    -3.26351  -1.92555   1.40855
