22
Generated by autodE on: 2022-06-10. E = -872.696060 Ha
C     3.90553  -1.11394   0.30055
O     2.50265  -1.16601   0.59937
C     1.75932  -0.13728   0.17724
O     2.20410   0.82102  -0.42547
C     0.34494  -0.32517   0.53735
C    -0.74077   0.31060   0.07078
C    -0.86354   1.39527  -0.95112
F    -0.37329   2.56663  -0.51008
F    -0.22166   1.09920  -2.09455
F    -2.15595   1.60122  -1.26925
C    -1.94252  -0.41889   0.72328
C    -2.00485  -1.82423   0.08051
C    -0.92769  -2.46025   0.54743
C    -0.22535  -1.43229   1.46251
O    -1.36130  -0.73269   1.99626
H     4.33712  -2.03088   0.71730
H     4.06428  -1.07655  -0.78687
H     4.36278  -0.22957   0.76731
H    -2.87386   0.14842   0.80983
H    -2.75809  -2.14736  -0.63647
H    -0.54762  -3.45576   0.32259
H     0.44355  -1.80877   2.24133
