49
Generated by autodE on: 2022-06-10. E = -1521.454608 Ha. Imaginary frequency = -140.4 cm-1
C    -1.15289   2.54061  -3.44412
N    -1.59324   1.64287  -2.39614
C    -1.38089   1.92727  -1.09029
O    -1.02613   3.06822  -0.71954
C    -1.55939   0.83076  -0.12254
C    -2.03673   1.09457   1.25268
O    -2.74549   0.29313   1.88444
N    -1.66555   2.28084   1.77854
C    -1.99236   2.63501   3.14086
O    -1.81952  -0.35146  -0.73872
C    -1.70668  -1.60857  -0.44806
C    -1.86423  -2.50034  -1.62911
C    -1.82920  -2.16945   0.92065
C     0.93613  -1.30329  -0.33525
C     1.31940  -2.46860   0.51262
F     0.79885  -3.62433   0.03168
F     0.97818  -2.39004   1.80192
F     2.66705  -2.64170   0.48203
C     1.33199  -1.36746  -1.84069
C     2.81836  -0.95502  -1.91914
C     2.82338   0.35042  -1.63191
C     1.34644   0.70948  -1.39187
O     0.69679  -0.17872  -2.31370
C     0.94718   0.04020  -0.04685
C     1.06816   0.73803   1.24307
O     0.76642   0.30433   2.33963
O     1.58682   1.96255   1.05542
C     1.80977   2.76157   2.22487
H    -1.65309   2.27216  -4.38395
H    -1.41269   3.57632  -3.18986
H    -0.06081   2.48704  -3.60207
H    -1.68117   0.66160  -2.63491
H    -1.14236   2.91037   1.16904
H    -3.07997   2.61414   3.31909
H    -1.52131   1.94083   3.85690
H    -1.62441   3.64901   3.34174
H    -2.89949  -2.88801  -1.65330
H    -1.19775  -3.36874  -1.53857
H    -1.66309  -1.96123  -2.56331
H    -2.89711  -2.15675   1.19740
H    -1.28866  -1.58689   1.66855
H    -1.48877  -3.21108   0.91455
H     1.01856  -2.25939  -2.39183
H     3.64768  -1.63417  -2.11055
H     3.65857   1.03913  -1.51337
H     1.05802   1.75254  -1.52737
H     0.86962   2.92881   2.76697
H     2.53341   2.27026   2.89136
H     2.21292   3.71466   1.86420
