21
Generated by autodE on: 2022-05-29. E = -478.763417 Ha
C    -1.31998  -1.29376   1.42209
N    -0.67265  -1.17375   0.31575
C    -0.94957  -2.08610  -0.80550
C     0.05708   0.03236   0.03561
C    -0.73985   1.22813   0.18065
C    -0.17374   2.55310  -0.28174
O    -1.88790   1.20651   0.66980
C     1.42753  -0.04247  -0.37342
C     2.14969  -1.38081  -0.30462
O     2.08859   0.94704  -0.75179
H    -2.04779  -2.10090   1.53861
H    -1.11059  -0.60858   2.24272
H    -1.43289  -2.99651  -0.43150
H    -0.01404  -2.34348  -1.31243
H    -1.60735  -1.56509  -1.51567
H     0.71155   2.82302   0.31315
H    -0.95012   3.32057  -0.15804
H     0.15773   2.51081  -1.32848
H     3.17482  -1.19079   0.04543
H     2.22806  -1.80724  -1.31863
H     1.67647  -2.12330   0.35109
