14
Generated by autodE on: 2022-05-29. E = -859.428377 Ha
N     3.02982  -0.95574  -0.81758
C     1.90123  -0.72216  -0.64046
C     0.53483  -0.46001  -0.43765
C    -0.06477   0.66657  -0.00205
Cl    0.62322   2.15489   0.45872
C    -1.56729   0.32093   0.12589
C    -1.68657  -0.65704   1.31533
C    -1.11378  -1.78497   0.88660
C    -0.64744  -1.47652  -0.55162
O    -1.68364  -0.58117  -0.98273
H    -2.26352   1.16352   0.07078
H    -2.10372  -0.40513   2.28910
H    -0.93396  -2.72182   1.41209
H    -0.49483  -2.31265  -1.24030
