59
Generated by autodE on: 2022-06-07. E = -1587.043159 Ha. Imaginary frequency = -409.9 cm-1
C   -11.00719   3.43748  -0.91639
N   -11.57449   2.27986  -0.25296
C   -12.67512   1.66009  -0.72573
O   -13.36590   2.10502  -1.65534
C   -13.05399   0.39835  -0.08229
O   -12.29318  -0.13973   0.93300
C   -12.93259  -1.23045   1.33872
C   -12.46714  -1.89563   2.57730
O   -14.25173  -1.08209   1.08709
C   -14.39147  -0.10140   0.07465
O   -15.46486   0.11424  -0.43756
C   -12.58239  -2.44465  -0.42094
C   -12.38641  -1.62313  -1.33672
C   -11.90601  -1.05527  -2.59992
C   -10.68978  -0.11901  -2.35126
C    -9.73013  -0.53054  -1.26522
O   -10.49519   0.86303  -3.03773
C   -13.09872  -0.45620  -3.38491
C   -12.86281   0.46600  -4.54476
O   -14.22260  -0.81103  -3.07858
C   -11.28629  -2.19391  -3.50915
C   -12.08403  -3.49051  -3.65560
C   -11.88901  -4.55515  -2.55370
C   -13.00584  -4.67299  -1.50896
C   -12.81365  -3.89728  -0.16022
C   -11.59974  -4.50157   0.57655
C   -11.69374  -5.89203   1.13888
O   -10.56428  -3.86321   0.64227
C   -14.12951  -4.06441   0.62623
O   -14.24040  -4.57224   1.72165
O   -15.14652  -3.54894  -0.05359
C   -16.42271  -3.49094   0.60176
H   -10.31046   3.93676  -0.23143
H   -10.46347   3.15012  -1.83157
H   -11.80251   4.14302  -1.19250
H   -11.02824   1.81706   0.46657
H   -11.38133  -2.03783   2.52528
H   -12.96432  -2.86017   2.71948
H   -12.71118  -1.24489   3.43379
H    -8.75549  -0.06166  -1.45290
H    -9.63263  -1.62021  -1.17621
H   -10.11373  -0.17257  -0.29821
H   -13.75732   0.46205  -5.18220
H   -12.71088   1.47911  -4.14366
H   -11.96734   0.20576  -5.12185
H   -10.28857  -2.43484  -3.11441
H   -11.12803  -1.73686  -4.49611
H   -11.74992  -3.93199  -4.60715
H   -13.15632  -3.27279  -3.78932
H   -11.83482  -5.53416  -3.05287
H   -10.90755  -4.41993  -2.06986
H   -13.94970  -4.31742  -1.94206
H   -13.16049  -5.72904  -1.24371
H   -10.73672  -6.40638   0.97130
H   -12.52568  -6.47673   0.73007
H   -11.84530  -5.80190   2.22654
H   -17.07104  -2.91010  -0.06350
H   -16.82377  -4.50434   0.74466
H   -16.32584  -2.98790   1.57328
