20
Generated by autodE on: 2022-06-20. E = -457.715322 Ha
C    -3.11082   0.36410  -0.54124
N    -1.79315  -0.20302  -0.30622
C    -1.66558  -1.57969  -0.08241
C    -0.49009  -2.16164   0.20320
C     0.80489  -1.39484   0.31175
C     0.56466   0.08813   0.08016
C     1.66683   1.06094   0.14646
N     2.89521   0.55218   0.41743
O     1.51435   2.28720  -0.02949
C    -0.67787   0.57241  -0.20186
H    -3.01034   1.42890  -0.78594
H    -3.60724  -0.14271  -1.38353
H    -3.75518   0.26741   0.34877
H    -2.59556  -2.14574  -0.16047
H    -0.47016  -3.24243   0.36083
H     1.26889  -1.57089   1.30383
H     1.54465  -1.79385  -0.41258
H     3.06189  -0.43713   0.54984
H     3.68380   1.18788   0.46575
H    -0.82148   1.64193  -0.36349
