19
Generated by autodE on: 2022-06-20. E = -585.859157 Ha
C     3.58041  -0.04740   0.05740
N     2.14766   0.16819   0.00133
C     1.28741  -0.73932   0.51217
O     1.67253  -1.78564   1.04004
C    -0.16775  -0.41446   0.38596
N    -0.53653   0.49958  -0.47455
C    -0.88163   1.31663  -1.25218
C    -1.28269   2.24991  -2.14698
N    -1.63129   3.05825  -2.92125
C    -1.22170  -1.07081   1.18823
C    -2.64399  -0.65480   0.90254
O    -0.95212  -1.90110   2.04793
H     3.96041  -0.00822   1.09192
H     4.07875   0.73319  -0.53023
H     3.84220  -1.03032  -0.36167
H     1.80904   1.06624  -0.32603
H    -2.77646   0.42467   1.08115
H    -2.90104  -0.84581  -0.15189
H    -3.32039  -1.22000   1.55554
