29
Generated by autodE on: 2022-06-22. E = -800.013656 Ha
C     4.34965  -0.37008  -0.32184
N     3.71314  -1.53597  -0.91213
C     2.47569  -1.97070  -0.63871
O     1.94251  -2.98038  -1.10728
C     1.71007  -1.18492   0.35129
N     0.81236  -0.39601   0.30188
C    -0.17614   0.45083   0.33051
C     0.26156   1.85618   0.45036
O     1.42751   2.18356   0.61770
O    -0.73410   2.73878   0.33194
C    -0.37963   4.12544   0.42313
C    -1.54882  -0.07588   0.18809
C    -2.68107   0.61857   0.65743
C    -3.95534   0.06359   0.52617
C    -4.12988  -1.19106  -0.06503
C    -3.01092  -1.89395  -0.52434
C    -1.73552  -1.34444  -0.40267
H     4.98563   0.11683  -1.07323
H     3.59438   0.35975  -0.00004
H     4.97299  -0.63893   0.54616
H     4.25543  -2.12740  -1.53880
H     0.08178   4.34285   1.39719
H     0.31934   4.39731  -0.38093
H    -1.31754   4.68207   0.31467
H    -2.56290   1.58832   1.13630
H    -4.82017   0.61799   0.89853
H    -5.12983  -1.61896  -0.16629
H    -3.13129  -2.87564  -0.98854
H    -0.87252  -1.90196  -0.77351
