29
Generated by autodE on: 2022-07-27. E = -800.015635 Ha
C    -1.97504   3.45638  -0.91192
N    -2.59371   2.42621  -1.73089
C    -2.04304   1.22789  -1.97579
O    -2.57302   0.29079  -2.57781
C    -0.64762   1.06772  -1.51700
N    -0.11566   0.53700  -0.58616
C     0.54056  -0.04485   0.37533
C     0.93558   0.81473   1.50760
O     1.50503   0.43426   2.51641
O     0.58243   2.09596   1.30787
C     0.90304   3.02144   2.35336
C     0.79208  -1.49504   0.28045
C     1.75086  -2.14582   1.08198
C     1.97300  -3.51734   0.94339
C     1.25357  -4.26636   0.00799
C     0.30103  -3.62819  -0.79421
C     0.06853  -2.26063  -0.65955
H    -2.10638   3.26555   0.16511
H    -2.42428   4.42666  -1.15757
H    -0.89719   3.51536  -1.12474
H    -3.56719   2.53019  -2.00945
H     0.39706   2.73981   3.28837
H     0.54388   3.99841   2.00969
H     1.98922   3.05413   2.52241
H     2.32300  -1.57410   1.80919
H     2.72262  -4.00273   1.57306
H     1.43149  -5.33923  -0.09475
H    -0.27243  -4.20096  -1.52686
H    -0.68919  -1.78112  -1.28311
