52
Generated by autodE on: 2022-06-22. E = -1151.541923 Ha. Imaginary frequency = -346.6 cm-1
C    -4.00648   0.82149  -3.12775
N    -4.32904   2.02611  -2.37995
C    -3.75976   2.38902  -1.22217
O    -4.05265   3.37907  -0.54888
C    -2.61759   1.55370  -0.77804
N    -2.43378   0.63848  -0.01933
C    -1.55990  -0.12910   0.63809
C    -1.02115   0.43640   1.87161
O    -0.18618  -0.09232   2.59443
O    -1.51400   1.66825   2.12879
C    -0.96936   2.34703   3.26273
C    -1.19892  -1.42461   0.07879
C    -0.07438  -2.15488   0.52988
C     0.30639  -3.33670  -0.10977
C    -0.41630  -3.82932  -1.19948
C    -1.53526  -3.11802  -1.65198
C    -1.91965  -1.93424  -1.02847
C     0.22899   1.44520  -1.30533
C     0.38853   0.43655  -2.40816
C     1.09112   1.37051  -0.14972
C     2.03353   0.40880   0.06785
C     2.85102   0.34449   1.25769
C     3.69575  -0.65862   1.61147
C     3.91045  -1.90404   0.79793
C     4.46944  -0.60000   2.89817
C    -0.73913   2.43113  -1.41902
H    -4.57960  -0.05002  -2.77354
H    -4.23699   0.98613  -4.18790
H    -2.93452   0.59389  -3.04403
H    -5.11592   2.59750  -2.68190
H     0.11248   2.50602   3.13857
H    -1.48672   3.31246   3.31360
H    -1.14700   1.77523   4.18555
H     0.49982  -1.78898   1.37545
H     1.18575  -3.87476   0.25321
H    -0.11406  -4.75617  -1.69217
H    -2.11418  -3.48921  -2.50124
H    -2.79186  -1.39291  -1.39863
H     0.21798  -0.58814  -2.03872
H    -0.32069   0.62510  -3.22636
H     1.41067   0.45521  -2.82244
H     0.94946   2.14616   0.61159
H     2.16095  -0.37643  -0.68028
H     2.74424   1.18496   1.95421
H     3.34539  -1.91893  -0.14273
H     4.98123  -2.03306   0.55943
H     3.61868  -2.79521   1.38249
H     4.26775   0.32288   3.46208
H     4.22490  -1.46263   3.54454
H     5.55668  -0.66107   2.70861
H    -0.79167   3.23308  -0.67605
H    -1.17161   2.64949  -2.39834
