24
Generated by autodE on: 2022-06-16. E = -725.435514 Ha
C     2.86327   1.34694  -1.17647
C     2.49205   0.64069   0.08712
O     3.18698   0.57839   1.07977
C     1.14733  -0.07461   0.07938
C     1.10758  -1.50775  -0.48967
C    -0.40941  -1.65692  -0.76277
C    -0.92885  -0.27185  -0.27647
C    -2.29687   0.15321  -0.76395
C    -2.38025   1.40926  -1.56774
O    -3.24655  -0.54852  -0.47161
O     0.14819   0.60808  -0.64089
C    -0.74343  -0.28440   1.25102
O    -1.53333  -0.42583   2.14242
O     0.59371  -0.13686   1.42598
H     2.74979   0.67132  -2.03913
H     3.89339   1.71852  -1.11013
H     2.16684   2.18678  -1.33491
H     1.70230  -1.56159  -1.40998
H     1.50311  -2.22117   0.24291
H    -0.88516  -2.47884  -0.21472
H    -0.62742  -1.75884  -1.83336
H    -1.99239   2.25047  -0.97022
H    -1.72945   1.32571  -2.45333
H    -3.41825   1.59771  -1.86908
