18
Generated by autodE on: 2022-06-16. E = -646.741188 Ha
C    -3.64403   0.44000   0.12151
C    -2.33265   0.98617   0.57127
O    -2.15630   1.97047   1.25754
C    -1.11236   0.22881   0.11535
O    -1.12456  -0.83145  -0.60910
C     0.32691  -1.24944  -0.83404
O     0.55633  -2.22470  -1.48943
C     1.00220  -0.24538  -0.11992
C     2.41876  -0.04021   0.07689
C     2.83617   1.15609   0.89036
O     3.22550  -0.82875  -0.41846
O     0.07268   0.62587   0.43602
H    -3.76077  -0.59284   0.48956
H    -3.66853   0.39263  -0.97981
H    -4.45637   1.07405   0.49626
H     3.92970   1.16827   0.98048
H     2.49123   2.08348   0.40500
H     2.37654   1.12281   1.89096
