24
Generated by autodE on: 2022-06-16. E = -725.364412 Ha. Imaginary frequency = -367.7 cm-1
C     2.78741   1.47755  -1.12108
C     2.49869   0.60626   0.05949
O     3.31586   0.23092   0.87765
C     1.08410   0.14377   0.20735
C     1.09151  -1.74764  -0.85839
C    -0.26026  -2.00798  -0.89081
C    -1.05609   0.19774   0.00376
C    -2.33134   0.47387  -0.64324
C    -2.28885   1.25933  -1.92395
O    -3.36849   0.04625  -0.14382
O     0.10703   0.71792  -0.48350
C    -0.78878  -0.36485   1.29794
O    -1.45295  -0.83350   2.18882
O     0.62829  -0.28342   1.39260
H     2.42266   1.00430  -2.04604
H     3.86685   1.66128  -1.18454
H     2.24760   2.43256  -1.01047
H     1.59459  -1.37886  -1.75602
H     1.72322  -2.22044  -0.10206
H    -0.74486  -2.61080  -0.11917
H    -0.85726  -1.77414  -1.77491
H    -1.83166   2.24660  -1.74884
H    -1.66177   0.73914  -2.66587
H    -3.30769   1.38070  -2.31251
