18
Generated by autodE on: 2022-06-01. E = -605.729086 Ha
C     4.22711   0.61208   1.14963
O     2.79735   0.56503   0.94726
C     2.36490  -0.23914  -0.00555
O     3.01958  -0.94782  -0.73729
C     0.91881  -0.19657  -0.10639
N    -0.22993  -0.25122  -0.30493
C    -1.55355  -0.18745  -0.38528
C    -2.22144  -0.97537  -1.35056
N    -2.79933  -1.61400  -2.13783
C    -2.23189   0.71538   0.56077
C    -3.73194   0.77775   0.46709
O    -1.57955   1.36699   1.37009
H     4.72318   0.96102   0.23358
H     4.59890  -0.38507   1.42253
H     4.38321   1.32133   1.96894
H    -4.11624   1.47911   1.21822
H    -4.16709  -0.22100   0.63193
H    -4.03898   1.10409  -0.53953
