23
Generated by autodE on: 2022-06-01. E = -960.479092 Ha
C     3.53203   1.41427  -0.12327
O     2.23698   1.06982   0.38081
C     1.55534   0.12809  -0.30090
O     2.00264  -0.41909  -1.29427
C     0.24918  -0.12823   0.31027
C    -0.81993  -0.74488  -0.24846
Cl   -0.97127  -1.42454  -1.82427
C    -2.01506  -0.57109   0.66044
C    -2.39424   0.94453   0.54874
C    -1.18786   1.65817   1.22235
C    -0.26058   0.46716   1.62110
C    -1.30448  -0.59215   2.02957
H     3.92437   2.18610   0.54930
H     3.45775   1.80748  -1.14797
H     4.19545   0.53678  -0.12073
H    -2.84052  -1.27048   0.48608
H    -2.54993   1.24449  -0.49711
H    -3.33032   1.12553   1.09652
H    -1.49990   2.21098   2.12065
H    -0.67222   2.36090   0.55308
H     0.52114   0.71468   2.34744
H    -0.85862  -1.56880   2.26728
H    -1.95594  -0.26477   2.85345
