49
Generated by autodE on: 2022-06-06. E = -1704.079052 Ha
C    -2.10045   4.10756   2.52880
O    -1.40846   2.85239   2.68865
C    -1.23346   2.12317   1.60563
O    -1.62506   2.39449   0.49514
C    -0.51710   0.76562   1.89872
C    -0.01289   0.71474   3.28642
N     0.34550   0.62231   4.38440
C     0.55825   0.54288   0.83407
C     0.12190  -0.35181  -0.07478
C    -1.27098  -0.88338   0.35857
C    -1.36637  -2.36248   0.49731
N    -1.47981  -3.49497   0.71057
C    -2.36386  -0.43104  -0.55206
N    -3.27170  -0.05678  -1.16604
N    -1.43589  -0.33955   1.69816
C    -2.77237  -0.26384   2.27126
C     0.83447  -0.69696  -1.38925
C     0.35915  -2.03613  -2.01774
F     0.86512  -2.20622  -3.24540
F     0.75937  -3.07548  -1.27453
F    -0.97802  -2.12376  -2.14307
C     0.54565   0.44375  -2.41759
F    -0.72544   0.42281  -2.84654
F     1.33299   0.35247  -3.49627
F     0.75845   1.65113  -1.87652
C     2.38734  -0.83599  -1.24257
C     2.91142  -1.50423   0.04699
C     3.70090  -0.55419   0.95501
C     2.87657   0.44675   1.76642
C     1.86763   1.29137   0.93562
C     1.71102   2.71476   1.48847
H    -1.53129   4.76081   1.85298
H    -2.15836   4.54467   3.53115
H    -3.10579   3.93113   2.12278
H    -3.41956   0.47685   1.76889
H    -2.68443   0.00053   3.33382
H    -3.24974  -1.25150   2.20709
H     2.83823   0.15525  -1.35850
H     2.73544  -1.39473  -2.11971
H     2.09316  -1.97327   0.61402
H     3.57650  -2.32730  -0.25201
H     4.29381  -1.15440   1.66435
H     4.42997  -0.00559   0.33306
H     2.34350  -0.08481   2.56914
H     3.56463   1.14402   2.26950
H     2.27439   1.41326  -0.07060
H     1.01320   3.30844   0.88002
H     1.37861   2.73689   2.53629
H     2.69008   3.21424   1.45055
