20
Generated by autodE on: 2022-07-27. E = -678.128613 Ha
C     0.67820   3.47939   1.31796
O     0.67413   2.05276   1.49812
C     0.09101   1.33081   0.54358
O    -0.40264   1.79132  -0.46721
C     0.05011  -0.10039   0.91767
C     0.23778  -0.43791   2.28106
N     0.40392  -0.70282   3.40360
N    -0.33580  -1.06963   0.06064
C    -0.85547  -2.32850   0.64695
C    -0.22939  -0.98561  -1.29024
C    -0.94089  -1.87396  -2.13617
N    -1.50247  -2.56596  -2.88713
C     0.66860  -0.09703  -1.93032
N     1.44329   0.55780  -2.50305
H     1.20575   3.74164   0.39003
H     1.20506   3.88749   2.18738
H    -0.35202   3.86068   1.27943
H    -1.25898  -2.96356  -0.14570
H    -1.63749  -2.08708   1.37517
H    -0.02069  -2.84733   1.13697
