49
Generated by autodE on: 2022-06-06. E = -1703.986592 Ha. Imaginary frequency = -324.9 cm-1
C    -1.05302   4.74959   1.97283
O    -1.01075   3.31887   2.12079
C    -1.64848   2.60065   1.20666
O    -2.27663   3.05938   0.27900
C    -1.54342   1.12819   1.50547
C    -1.65722   0.82223   2.90556
N    -1.76426   0.57324   4.03538
C     0.53648   0.61181   0.96386
C     0.43306  -0.22458   0.02378
C    -1.77053   0.14999  -0.63184
C    -2.47922  -0.77440  -1.47657
N    -3.05881  -1.48052  -2.19364
C    -1.26152   1.25749  -1.39299
N    -0.82087   2.05162  -2.11827
N    -2.19130   0.23868   0.67401
C    -2.70941  -1.00228   1.27682
C     1.16507  -1.29869  -0.70809
C     0.55980  -2.67121  -0.28943
F     0.68790  -2.84586   1.03349
F     1.18162  -3.69210  -0.89632
F    -0.74520  -2.78243  -0.57453
C     1.08749  -1.13446  -2.24763
F    -0.13502  -1.38264  -2.74237
F     1.93516  -1.96781  -2.86699
F     1.40806   0.11320  -2.61321
C     2.66658  -1.33347  -0.27531
C     3.57185  -0.18028  -0.71692
C     3.19521   1.22695  -0.23811
C     2.94228   1.31275   1.27364
C     1.47319   1.49387   1.72655
C     1.40116   1.36567   3.25299
H    -0.60341   5.04056   1.01340
H    -0.46976   5.15112   2.80833
H    -2.09197   5.10372   2.02177
H    -3.26307  -1.57084   0.52465
H    -3.39147  -0.74792   2.09395
H    -1.87082  -1.60772   1.65269
H     2.66476  -1.41031   0.81934
H     3.09314  -2.27120  -0.65704
H     4.56691  -0.42629  -0.30951
H     3.69089  -0.18224  -1.81042
H     4.02707   1.89643  -0.50735
H     2.32156   1.60259  -0.79212
H     3.35602   0.42354   1.77772
H     3.48373   2.17211   1.69778
H     1.17862   2.52243   1.45674
H     2.25901   1.89593   3.69343
H     1.45548   0.31173   3.56563
H     0.49348   1.81039   3.67077
