47
Generated by autodE on: 2022-06-25. E = -1276.615695 Ha
C     1.67512  -2.02597   3.10107
N     1.75115  -1.15170   1.95084
C     1.70083  -1.57025   0.68452
O     1.66711  -2.75441   0.32806
C     1.64050  -0.46515  -0.37787
N     1.76778   0.88779   0.16675
C     0.61572   1.71828  -0.14246
C     0.77773   2.51278  -1.37981
N     0.95388   3.19224  -2.30363
C     0.31023   2.78290   0.97271
C     1.15992   2.77158   2.20591
O    -0.50398   3.65312   0.73899
C    -0.50856   0.62942  -0.38681
O    -1.58249   1.02251  -1.18271
C    -2.68966   1.72394  -0.60972
C    -0.99970   0.08186   0.97076
O    -1.10148   0.85032   1.91540
C    -1.41282  -1.33003   1.06188
C    -2.06149  -1.77413   2.33608
C    -1.17327  -2.20731   0.04398
C    -1.58639  -3.63937   0.13834
C    -0.43921  -1.79703  -1.18061
O    -0.40221  -2.49655  -2.17695
C     0.29886  -0.45277  -1.16239
O     0.66217  -0.04383  -2.45407
C    -0.30820   0.11595  -3.49226
H     1.37668  -3.02849   2.77067
H     2.64530  -2.09901   3.61834
H     0.92913  -1.64128   3.81136
H     1.78604  -0.14190   2.07485
H     2.42609  -0.70130  -1.10751
H     2.65587   1.33618  -0.04196
H     0.81717   3.56875   2.87794
H     2.20886   2.95437   1.92059
H     1.12152   1.80330   2.71955
H    -3.35345   1.95678  -1.45238
H    -3.23850   1.09598   0.10994
H    -2.36912   2.65562  -0.12760
H    -1.46873  -2.57655   2.80472
H    -3.06202  -2.19173   2.13940
H    -2.15684  -0.94349   3.04433
H    -2.65136  -3.72505   0.40446
H    -1.40494  -4.16561  -0.80575
H    -1.01637  -4.14055   0.93860
H    -0.50767   1.18547  -3.65502
H     0.12792  -0.31273  -4.40701
H    -1.25387  -0.39311  -3.27656
