21
Generated by autodE on: 2022-07-27. E = -587.120031 Ha
C     2.01942  -2.74045   0.80646
N     0.56861  -2.72631   0.70615
C    -0.13999  -1.80750   0.02685
O    -1.35921  -1.64949   0.14122
C     0.59333  -1.07249  -1.04734
N     0.37899   0.17733  -1.34490
C    -0.20941   1.18331  -0.58742
C    -0.65247   2.31953  -1.29436
N    -1.03206   3.26521  -1.86827
C    -0.12906   1.17157   0.85205
C    -0.67803   2.37629   1.58110
O     0.40439   0.23853   1.47200
H     2.39793  -1.84881   1.33215
H     2.32217  -3.63538   1.36393
H     2.49066  -2.78702  -0.18600
H     0.04164  -3.21361   1.42790
H     1.20485  -1.63281  -1.75839
H     0.74534   0.47719  -2.25439
H    -1.73596   2.53823   1.32088
H    -0.12819   3.28935   1.30273
H    -0.58664   2.21338   2.66260
