26
Generated by autodE on: 2022-06-25. E = -689.460840 Ha
C    -3.12761  -0.89539  -0.05745
O    -2.20082  -0.26272   0.83149
C    -0.91820  -0.14665   0.37763
C    -0.36342   1.04399   0.01356
O    -0.91835   2.25502  -0.02873
C    -2.30608   2.47975   0.24069
C     1.08523   1.10047  -0.39327
O     1.56923   2.18068  -0.70236
C     1.88683  -0.14969  -0.42360
C     3.31722  -0.04863  -0.85513
C     1.32153  -1.33032  -0.06928
C     2.09026  -2.61360  -0.08403
C    -0.10397  -1.38094   0.37533
O    -0.60687  -2.43822   0.75191
H    -4.10099  -0.89104   0.45077
H    -3.20652  -0.33143  -1.00176
H    -2.83279  -1.93289  -0.27272
H    -2.45895   3.55554   0.08705
H    -2.55712   2.21150   1.27488
H    -2.93880   1.91582  -0.45956
H     3.98991  -0.42183  -0.06550
H     3.58962   0.98690  -1.09027
H     3.50017  -0.67317  -1.74516
H     2.49673  -2.81238  -1.08933
H     2.95546  -2.55639   0.59753
H     1.45963  -3.45773   0.21837
