72
Generated by autodE on: 2022-06-08. E = -1410.431015 Ha
C     4.55535   1.83968  -4.54595
C     3.12829   1.60116  -4.94831
O     2.76967   0.50565  -5.35301
C     2.12159   2.78994  -4.94469
C     2.70301   4.05068  -4.28021
C     1.97168   3.11139  -6.46195
C     0.96686   4.22544  -6.82343
C    -0.20728   3.74271  -7.67594
C    -1.23232   2.87737  -6.94456
C    -0.69095   1.58632  -6.28871
C    -0.24398   1.72628  -4.85206
C     0.84275   2.28059  -4.27872
C     0.71029   2.22435  -2.73057
C     0.27951   3.58697  -2.13380
C    -0.24632   4.60777  -2.94044
C    -0.74682   5.78977  -2.38760
C    -0.74497   5.97632  -1.00273
C    -0.24195   4.96309  -0.18193
C     0.26030   3.78512  -0.74194
C     1.97891   1.64705  -2.05896
C     2.91158   2.41575  -1.34653
C     4.06428   1.83736  -0.80462
C     4.31130   0.47249  -0.96648
C     3.38694  -0.30831  -1.66789
C     2.23455   0.27397  -2.19756
N    -0.38199   1.25231  -2.58379
C    -0.99851   1.02753  -1.30570
C    -1.19504   1.16187  -3.79665
C    -2.49336   1.99026  -3.73288
C    -1.47754  -0.32915  -4.07010
C    -0.42214  -1.15720  -4.49416
C    -0.61548  -2.52257  -4.70276
C    -1.87486  -3.09678  -4.48711
C    -2.93184  -2.28651  -4.07095
C    -2.73450  -0.91353  -3.86946
H     4.60794   2.20440  -3.51043
H     5.00035   2.61934  -5.18391
H     5.12631   0.90782  -4.64515
H     1.99021   4.88074  -4.34588
H     2.95014   3.90927  -3.22532
H     3.61813   4.36273  -4.80219
H     2.97569   3.39958  -6.81133
H     1.73106   2.18999  -7.00283
H     1.49584   5.02119  -7.37061
H     0.57345   4.70478  -5.91370
H    -0.73320   4.62012  -8.08980
H     0.18684   3.18407  -8.54437
H    -2.01256   2.58883  -7.66825
H    -1.73989   3.48244  -6.17520
H    -1.50394   0.84723  -6.29494
H     0.09907   1.14632  -6.91308
H    -0.27164   4.47794  -4.02076
H    -1.14107   6.56725  -3.04680
H    -1.13471   6.89947  -0.56710
H    -0.24064   5.08638   0.90399
H     0.64351   3.01078  -0.07745
H     2.75011   3.48339  -1.20545
H     4.77196   2.46298  -0.25535
H     5.21309   0.02003  -0.54705
H     3.56230  -1.37854  -1.80243
H     1.51153  -0.33687  -2.73547
H    -1.63078   0.12711  -1.36301
H    -1.63270   1.85867  -0.93591
H    -0.22718   0.83589  -0.54304
H    -3.13795   1.66536  -2.90387
H    -2.25573   3.04993  -3.57557
H    -3.07194   1.89665  -4.66333
H     0.55966  -0.71828  -4.67817
H     0.21933  -3.14292  -5.03875
H    -2.02866  -4.16660  -4.64790
H    -3.92104  -2.71925  -3.90131
H    -3.57924  -0.30430  -3.54784
