28
Generated by autodE on: 2022-06-08. E = -504.203391 Ha
C     2.09608   0.90572   1.71661
C     1.95976   0.31491   0.34263
O     2.69825   0.63359  -0.57262
C     0.87002  -0.76159   0.12478
C     1.55285  -2.11713   0.41622
C    -0.30619  -0.51646   0.96547
C    -1.43697  -0.16845   1.23904
C    -2.78207   0.35293   1.01599
C    -2.75876   1.10049  -0.33976
C    -2.09773   0.34383  -1.51330
C    -0.55884   0.47214  -1.71549
C     0.34490  -0.72181  -1.33813
H     1.27943   1.63138   1.86563
H     1.98322   0.13594   2.49445
H     3.06042   1.42143   1.81382
H     2.37680  -2.28265  -0.29367
H     0.82161  -2.93133   0.30611
H     1.95771  -2.14943   1.43878
H    -3.12020   1.02443   1.82170
H    -3.50331  -0.48176   0.97757
H    -2.24460   2.06687  -0.20151
H    -3.80202   1.33775  -0.60573
H    -2.37831  -0.72345  -1.46690
H    -2.57124   0.72905  -2.43034
H    -0.19287   1.38626  -1.21643
H    -0.39331   0.64692  -2.79036
H    -0.19320  -1.66481  -1.52577
H     1.23123  -0.72542  -1.98998
