44
Generated by autodE on: 2022-06-08. E = -906.122367 Ha
C     2.32043   1.42719  -2.37759
C     1.48706   0.98707  -1.21226
C     2.08329   0.12465  -0.19073
C     1.72098   0.22199   1.17369
C     2.34545  -0.56359   2.13502
C     3.33508  -1.49030   1.76838
C     3.69608  -1.60646   0.42558
C     3.08215  -0.80640  -0.54335
N     0.17736   1.28798  -1.17854
C    -0.31642   2.39516  -2.02139
C    -0.76655   0.50218  -0.51455
C    -1.78333   1.18357   0.27036
C    -3.06043   0.61241   0.50858
C    -4.02722   1.28368   1.25162
C    -3.76814   2.55534   1.78484
C    -2.51569   3.13750   1.56432
C    -1.53786   2.46329   0.83171
C    -0.60752  -0.94879  -0.51035
C    -0.07050  -1.64333  -1.62507
C     0.06002  -3.02777  -1.62484
C    -0.33080  -3.78542  -0.50957
C    -0.84871  -3.12096   0.60523
C    -0.97690  -1.72984   0.61009
H     2.10193   0.81726  -3.27589
H     3.38763   1.31840  -2.15076
H     2.14086   2.47601  -2.65132
H     0.94884   0.93085   1.47688
H     2.06019  -0.45632   3.18442
H     3.81476  -2.11295   2.52701
H     4.45948  -2.32734   0.12257
H     3.36905  -0.92015  -1.58994
H    -0.21751   2.11477  -3.08003
H     0.24790   3.31834  -1.83558
H    -1.37473   2.56006  -1.80579
H    -3.29473  -0.36550   0.08445
H    -5.00289   0.81574   1.40842
H    -4.53099   3.07970   2.36483
H    -2.28935   4.12255   1.98140
H    -0.55681   2.92452   0.70090
H     0.24357  -1.07945  -2.50651
H     0.46844  -3.52725  -2.50749
H    -0.22517  -4.87264  -0.51210
H    -1.14323  -3.68830   1.49239
H    -1.35774  -1.23386   1.50394
