44
Generated by autodE on: 2022-07-27. E = -906.120937 Ha
C    -0.66881   0.36477  -2.02506
C    -0.72001  -0.73880  -1.02976
C    -1.77283  -1.75562  -1.14356
C    -2.07344  -2.34290  -2.39240
C    -3.08566  -3.29354  -2.51002
C    -3.83794  -3.66972  -1.39043
C    -3.56752  -3.08053  -0.15116
C    -2.54977  -2.13479  -0.02670
N     0.12315  -0.71743   0.01690
C     0.36346  -1.93899   0.80883
C     0.76874   0.45589   0.42583
C    -0.00948   1.67849   0.55932
C     0.58468   2.96186   0.44092
C    -0.15326   4.13103   0.62173
C    -1.52205   4.07899   0.91070
C    -2.13816   2.82375   1.00229
C    -1.40475   1.65276   0.82704
C     2.20878   0.39125   0.65355
C     2.86270   1.18627   1.62819
C     4.23858   1.10092   1.83041
C     5.02044   0.21324   1.07826
C     4.39586  -0.58486   0.11324
C     3.02096  -0.49209  -0.10275
H     0.34492   0.79034  -2.08137
H    -1.34747   1.19526  -1.74849
H    -0.98819   0.00595  -3.01314
H    -1.49035  -2.06709  -3.27307
H    -3.28883  -3.74680  -3.48323
H    -4.63419  -4.41145  -1.48612
H    -4.16055  -3.35134   0.72572
H    -2.37087  -1.66383   0.94058
H     1.40080  -1.93279   1.15597
H    -0.29227  -1.95539   1.68925
H     0.19310  -2.83311   0.19818
H     1.64375   3.03897   0.19126
H     0.34737   5.09805   0.52120
H    -2.09943   4.99570   1.04959
H    -3.20758   2.75478   1.21961
H    -1.91732   0.69258   0.91458
H     2.27369   1.86478   2.24751
H     4.70697   1.72538   2.59606
H     6.09837   0.14666   1.24241
H     4.98866  -1.27733  -0.49062
H     2.55879  -1.10361  -0.88134
