72
Generated by autodE on: 2022-06-08. E = -1410.308558 Ha. Imaginary frequency = -253.6 cm-1
C     4.97001   2.12313  -4.84869
C     3.56883   1.65287  -5.12830
O     3.33602   0.47742  -5.36614
C     2.44477   2.71207  -5.22973
C     2.79417   4.01263  -4.49887
C     2.35820   2.97139  -6.77847
C     1.17093   3.83439  -7.25306
C     0.06913   3.09182  -8.03448
C    -1.06546   2.41871  -7.25207
C    -0.71807   1.18166  -6.40297
C     0.12518   1.52813  -5.23368
C     1.14059   2.12231  -4.82718
C     0.63905   2.13406  -2.16881
C    -0.05267   3.35601  -1.67898
C     0.40475   4.66117  -1.94858
C    -0.23819   5.77817  -1.41622
C    -1.36001   5.62793  -0.59095
C    -1.81925   4.34079  -0.29891
C    -1.17116   3.22262  -0.82939
C     2.02482   1.91600  -1.71835
C     2.62488   2.75322  -0.74660
C     3.95342   2.58318  -0.35361
C     4.73422   1.55804  -0.89677
C     4.15604   0.70575  -1.84554
C     2.83814   0.88781  -2.25354
N    -0.17275   1.04274  -2.46553
C     0.15804  -0.27214  -1.88019
C    -1.18850   1.10550  -3.38207
C    -1.95437   2.37868  -3.63195
C    -1.95138  -0.14337  -3.67052
C    -1.33872  -1.25512  -4.28217
C    -2.07210  -2.39864  -4.59509
C    -3.44098  -2.45948  -4.30901
C    -4.06735  -1.36072  -3.71510
C    -3.33209  -0.21276  -3.40684
H     5.03056   2.58904  -3.85446
H     5.26502   2.88892  -5.58345
H     5.66000   1.27129  -4.89987
H     1.97178   4.73288  -4.60432
H     2.96356   3.83391  -3.42941
H     3.69609   4.47509  -4.92279
H     3.30917   3.43648  -7.08609
H     2.31238   1.98993  -7.27367
H     1.57266   4.61394  -7.91941
H     0.71956   4.37560  -6.40538
H    -0.41122   3.82594  -8.70349
H     0.54319   2.34831  -8.70083
H    -1.83181   2.10651  -7.98256
H    -1.54962   3.16615  -6.60044
H    -1.65433   0.68689  -6.10687
H    -0.17446   0.44791  -7.02541
H     1.26942   4.79781  -2.59355
H     0.13654   6.77734  -1.65295
H    -1.86525   6.50410  -0.17786
H    -2.68509   4.20223   0.35379
H    -1.52974   2.22230  -0.57845
H     2.04072   3.54945  -0.28640
H     4.37810   3.25592   0.39622
H     5.77448   1.42713  -0.59034
H     4.74804  -0.09243  -2.30037
H     2.43716   0.24234  -3.02967
H     0.70430  -0.92888  -2.56635
H    -0.77371  -0.77025  -1.58810
H     0.76246  -0.11453  -0.98283
H    -2.65379   2.59203  -2.80331
H    -1.30343   3.24907  -3.73876
H    -2.54750   2.26691  -4.54865
H    -0.27944  -1.20644  -4.53724
H    -1.57459  -3.24448  -5.07569
H    -4.01584  -3.35528  -4.55557
H    -5.13594  -1.39437  -3.48910
H    -3.83693   0.63434  -2.93976
