31
Generated by autodE on: 2022-06-16. E = -560.636050 Ha
C    -3.88833   0.58887   0.03267
C    -2.66936  -0.21676   0.49967
C    -1.95538   0.43824   1.65001
N    -0.77716   0.87675   1.43496
C    -0.43092   0.65019   0.00965
C    -0.55245   2.01459  -0.69182
C     0.99574   0.12969  -0.12507
C     1.74067  -0.27549   0.99075
C     3.03985  -0.77580   0.84736
C     3.61832  -0.88277  -0.41936
C     2.88362  -0.48568  -1.54226
C     1.58867   0.01530  -1.39463
C    -1.51866  -0.35929  -0.53148
C    -1.05400  -1.81205  -0.62139
H    -3.60109   1.59737  -0.30194
H    -4.62400   0.69795   0.84574
H    -4.38621   0.07916  -0.80695
H    -3.02829  -1.21066   0.81897
H    -2.42863   0.55824   2.63475
H     0.13971   2.74148  -0.24010
H    -0.32006   1.93254  -1.76279
H    -1.57570   2.40496  -0.59394
H     1.29664  -0.19365   1.98268
H     3.60068  -1.08313   1.73381
H     4.63253  -1.27317  -0.53324
H     3.32107  -0.56781  -2.54046
H     1.02803   0.30863  -2.28458
H    -1.85141  -0.03030  -1.52721
H    -1.89788  -2.45904  -0.90998
H    -0.67333  -2.16726   0.34995
H    -0.25488  -1.94897  -1.36320
