19
Generated by autodE on: 2022-06-16. E = -403.240098 Ha
C     2.94904   1.22949  -0.85451
N     2.20559   0.38394  -0.35873
C     1.35771  -0.51041   0.00120
C     1.84552  -1.89464   0.33360
C    -0.07099  -0.15722   0.07066
C    -1.02322  -1.11719   0.46944
C    -2.38015  -0.79229   0.52718
C    -2.81700   0.49163   0.18854
C    -1.87983   1.45331  -0.20929
C    -0.52408   1.13643  -0.26553
H     3.44926   1.92399  -0.14975
H     2.93402  -1.95900   0.20623
H     1.59860  -2.16284   1.37373
H     1.37037  -2.64456  -0.31996
H    -0.70568  -2.12592   0.73585
H    -3.10120  -1.55153   0.83958
H    -3.87899   0.74321   0.23514
H    -2.20893   2.46068  -0.47570
H     0.19547   1.89788  -0.57354
