12
Generated by autodE on: 2022-06-16. E = -157.300302 Ha
C     1.96219   0.06996   0.05084
C     0.54211  -0.35484  -0.17006
C    -0.54211   0.35488   0.16996
C    -1.96219  -0.06999  -0.05077
H     2.50471  -0.65803   0.67993
H     2.51688   0.12404  -0.90284
H     2.02250   1.05575   0.53835
H     0.39749  -1.33166  -0.65260
H    -0.39749   1.33172   0.65248
H    -2.51643  -0.12527   0.90311
H    -2.50517   0.65858  -0.67879
H    -2.02250  -1.05527  -0.53931
