28
Generated by autodE on: 2022-06-02. E = -575.361694 Ha
C     2.72229   0.13614  -1.94803
C     1.29285   0.70502  -1.87936
C     1.22745   2.05219  -2.61539
C     0.86391   0.81571  -0.48460
C     0.35185   0.60248   0.59363
C    -0.56960  -0.12165   1.48111
C    -1.85754   0.60381   1.56202
N    -2.87811   1.15202   1.58958
C    -0.03919  -0.28006   2.85122
N     0.39279  -0.43686   3.91489
C    -0.80389  -1.54728   0.84351
C    -1.18903  -1.53158  -0.64648
C    -0.05490  -1.57847  -1.70929
C     0.26185  -0.29362  -2.50236
H     3.43662   0.81588  -1.45943
H     3.01973   0.01938  -3.00167
H     2.79057  -0.84491  -1.45558
H     0.22417   2.49771  -2.53866
H     1.95742   2.76302  -2.19898
H     1.46015   1.90353  -3.68123
H    -1.58943  -2.03292   1.44119
H     0.12922  -2.10880   0.99865
H    -1.86592  -0.68378  -0.84761
H    -1.80589  -2.43176  -0.78857
H     0.86525  -1.97944  -1.25256
H    -0.35581  -2.32914  -2.45620
H     0.66127  -0.56936  -3.49234
H    -0.67778   0.25355  -2.68464
