23
Generated by autodE on: 2022-06-02. E = -646.337568 Ha
C     4.44768   0.01579   0.43458
O     3.20573   0.53116  -0.07051
C     2.10034  -0.10695   0.29768
O     2.08089  -1.08606   1.02705
C     0.86893   0.49478  -0.27401
C     0.85860   1.68995  -1.15483
N    -0.21463  -0.14587   0.08891
C    -1.54845  -0.00786  -0.15723
C    -2.09834   0.98433  -0.99306
N    -2.63070   1.77285  -1.67148
C    -2.37686  -0.99698   0.52405
C    -3.86506  -0.93486   0.32202
O    -1.84033  -1.85024   1.24217
H     4.45683   0.05442   1.53328
H     5.23057   0.66225   0.02286
H     4.59266  -1.02196   0.10192
H     0.23969   2.48952  -0.71667
H     0.43197   1.44505  -2.14117
H     1.87572   2.06813  -1.29644
H    -0.05258  -0.95665   0.71643
H    -4.11223  -1.04167  -0.74641
H    -4.34861  -1.73589   0.89491
H    -4.25601   0.04234   0.64797
