38
Generated by autodE on: 2022-06-01. E = -1551.934646 Ha
C     3.45484  -2.69084   1.34109
N     2.39137  -2.05274   0.58956
C     2.59943  -1.08578  -0.30313
O     3.68301  -0.61640  -0.64692
C     1.31032  -0.49890  -0.92739
C     1.47737  -0.49995  -2.39900
N     1.55993  -0.55000  -3.55377
O     0.18230  -1.24660  -0.55869
C    -0.99242  -0.43269  -0.65048
C    -2.09155  -1.00491   0.20065
C    -1.80968  -1.73649   1.36230
C    -2.85403  -2.20411   2.16416
C    -4.18241  -1.93608   1.81867
C    -4.46531  -1.20215   0.66222
C    -3.42366  -0.74281  -0.14718
C    -0.52304   1.00175  -0.26873
Cl   -1.33253   2.20823  -1.31775
C    -0.63423   1.37306   1.24433
C    -0.13520   2.79938   1.41316
C     1.19390   2.73470   1.27191
C     1.49896   1.26740   1.02463
O     0.46320   0.59954   1.75394
C     1.03753   0.96329  -0.43552
F     1.54774   1.86796  -1.32397
H     3.39172  -3.78398   1.23861
H     4.42114  -2.34790   0.95301
H     3.38646  -2.43319   2.40935
H     1.42434  -2.31414   0.76693
H    -1.31545  -0.39920  -1.70267
H    -0.77375  -1.93064   1.64231
H    -2.62788  -2.77772   3.06604
H    -4.99691  -2.30120   2.44866
H    -5.50097  -0.99312   0.38455
H    -3.64348  -0.17471  -1.05417
H    -1.58239   1.09770   1.71422
H    -0.77087   3.67377   1.54295
H     1.92651   3.54022   1.25276
H     2.49539   0.90251   1.28887
