25
Generated by autodE on: 2022-07-26. E = -685.403263 Ha
C     3.83413  -0.87565   1.58456
N     2.66047  -0.47462   0.84072
C     2.71829   0.09916  -0.38729
O     3.78690   0.33500  -0.98504
C     1.45181   0.44427  -1.01080
C     1.37322   1.03914  -2.27200
N     1.26294   1.53883  -3.32703
O     0.31135   0.15502  -0.32148
C    -0.91108   0.36152  -0.64930
C    -1.96160  -0.03839   0.23341
C    -1.70594  -0.66775   1.47557
C    -2.76703  -1.03907   2.29127
C    -4.08894  -0.79278   1.88871
C    -4.35005  -0.17047   0.66233
C    -3.29588   0.20662  -0.16458
H     3.89868  -0.34587   2.54897
H     4.72588  -0.63476   0.99396
H     3.83012  -1.95897   1.78798
H     1.74834  -0.62865   1.25689
H    -1.12206   0.84303  -1.61120
H    -0.67602  -0.85824   1.78317
H    -2.57104  -1.52561   3.24903
H    -4.91753  -1.08889   2.53587
H    -5.37971   0.01926   0.35259
H    -3.48827   0.69247  -1.12387
