13
Generated by autodE on: 2022-06-01. E = -866.414065 Ha
F     0.41140   2.02999  -0.88187
C     0.00986   0.99266  -0.16250
C     0.62352  -0.16233   0.10368
Cl    2.15108  -0.75515  -0.40806
C    -0.45606  -0.99773   0.83427
C    -1.55053  -1.35219  -0.20327
C    -2.15185  -0.19177  -0.47810
C    -1.41644   0.85304   0.39914
O    -1.12386   0.05320   1.56091
H    -0.08753  -1.79569   1.48740
H    -1.71738  -2.34400  -0.62137
H    -2.94907   0.03628  -1.18423
H    -1.93920   1.78519   0.63968
