38
Generated by autodE on: 2022-06-01. E = -1551.832201 Ha. Imaginary frequency = -143.7 cm-1
C     3.67690  -1.99731   1.54748
N     2.48459  -1.87066   0.73347
C     2.56834  -1.43325  -0.55038
O     3.64961  -1.29577  -1.15029
C     1.31185  -1.10244  -1.20751
C     1.26441  -0.69432  -2.54798
N     1.18894  -0.34299  -3.66177
O     0.16593  -1.40673  -0.54315
C    -1.00770  -0.93629  -0.81171
C    -2.09565  -1.22293   0.07690
C    -1.89567  -1.88994   1.30724
C    -2.96759  -2.08016   2.17158
C    -4.24397  -1.60981   1.82885
C    -4.44888  -0.95037   0.61140
C    -3.38407  -0.75760  -0.26502
C    -0.36971   1.48147  -0.15763
Cl   -1.59304   2.27658  -1.08283
C    -0.43503   1.33452   1.37802
C     0.10750   2.65365   1.97890
C     1.41520   2.65178   1.70094
C     1.66066   1.32802   0.93670
O     0.69998   0.47133   1.57859
C     0.96303   1.48658  -0.42051
F     1.56905   2.00118  -1.47866
H     3.43229  -2.55595   2.46037
H     4.45470  -2.54480   0.99840
H     4.09166  -1.01538   1.83829
H     1.60861  -1.69445   1.21735
H    -1.17467  -0.46961  -1.78571
H    -0.89966  -2.24952   1.56985
H    -2.81345  -2.59598   3.12168
H    -5.08081  -1.76013   2.51456
H    -5.44386  -0.58712   0.34606
H    -3.53424  -0.24069  -1.21457
H    -1.35592   0.91635   1.79604
H    -0.49904   3.40747   2.47890
H     2.17670   3.40317   1.90440
H     2.67420   0.91587   0.93704
