23
Generated by autodE on: 2022-06-19. E = -351.521385 Ha
C     3.68929  -0.61843  -0.55250
C     2.58248   0.03628  -0.13763
C     2.67624   1.36501   0.56779
C     1.26138  -0.54423  -0.36941
C     0.07848   0.00855  -0.00057
C    -1.20560  -0.61198  -0.25525
C    -2.42855  -0.12776   0.07873
C    -3.67645  -0.89508  -0.25572
C    -2.66132   1.17453   0.79078
H     3.61753  -1.58318  -1.06418
H     4.68988  -0.20736  -0.39212
H     2.12931   2.14757   0.01603
H     3.72201   1.68552   0.67611
H     2.22372   1.31434   1.57212
H     1.24728  -1.51065  -0.88764
H     0.08454   0.97167   0.51687
H    -1.16962  -1.57707  -0.77505
H    -4.34769  -0.29214  -0.89349
H    -4.25144  -1.12527   0.65931
H    -3.45745  -1.83922  -0.77575
H    -3.20366   1.00050   1.73700
H    -3.30978   1.83071   0.18368
H    -1.73956   1.72397   1.02131
