21
Generated by autodE on: 2022-06-19. E = -607.966435 Ha
C    -4.01367   0.41863  -0.24893
O    -2.77881  -0.30629  -0.18775
C    -1.65379   0.42510  -0.10111
O    -1.65117   1.64352  -0.07896
C    -0.45710  -0.42139  -0.03698
N    -0.69009  -1.71891  -0.04051
N    -0.87411  -2.83527  -0.04165
C     0.94542   0.03117   0.05579
C     1.96724  -0.87883   0.39598
C     3.29567  -0.46261   0.47511
C     3.63755   0.86977   0.22245
C     2.63090   1.77835  -0.11438
C     1.29817   1.37045  -0.20148
H    -4.03448   1.07416  -1.13164
H    -4.15306   1.02355   0.65888
H    -4.80271  -0.33883  -0.32235
H     1.72814  -1.92308   0.60700
H     4.06849  -1.18745   0.74152
H     4.67815   1.19520   0.28748
H     2.88106   2.82242  -0.31788
H     0.52696   2.08921  -0.46783
