44
Generated by autodE on: 2022-06-19. E = -959.456279 Ha. Imaginary frequency = -423.3 cm-1
C     5.68120   0.93018  -0.21031
C     4.41655   0.91971   0.26518
C     3.88931   2.04390   1.12048
C     3.52335  -0.19246  -0.05299
C     2.24119  -0.30473   0.37164
C     1.34400  -1.38624  -0.00081
N     0.72041  -0.71468  -1.89476
N    -0.37783  -0.35341  -1.72867
C    -1.20405  -0.30189  -0.60997
C    -2.40214  -1.16086  -0.71923
O    -3.26661  -1.25910   0.13523
O    -2.39153  -1.90671  -1.83263
C    -3.43154  -2.88605  -1.96249
C    -1.24832   1.03225   0.04126
C    -0.23527   1.97830  -0.22062
C    -0.20319   3.19904   0.45181
C    -1.18245   3.51093   1.40048
C    -2.19967   2.58839   1.65662
C    -2.23913   1.36433   0.98562
C     0.10593  -1.63046   0.65929
C    -0.20112  -1.02503   2.00590
C    -0.47788  -3.01073   0.45336
H     6.05825   0.11262  -0.83250
H     6.36717   1.75321   0.00868
H     4.65230   2.82010   1.27311
H     3.56889   1.67462   2.10887
H     3.00338   2.51263   0.66039
H     3.93981  -0.98062  -0.69159
H     1.82465   0.48490   0.99980
H     1.80384  -2.23886  -0.50836
H    -3.26105  -3.37682  -2.92758
H    -4.41947  -2.40419  -1.95077
H    -3.37131  -3.62168  -1.14745
H     0.54272   1.76638  -0.95361
H     0.59530   3.91081   0.22972
H    -1.15493   4.46599   1.92980
H    -2.97702   2.81898   2.38900
H    -3.03492   0.65567   1.20039
H     0.29010  -1.63132   2.78833
H     0.15064   0.00772   2.11334
H    -1.28153  -1.04374   2.21023
H    -0.42363  -3.32690  -0.59791
H     0.09797  -3.73842   1.05274
H    -1.52114  -3.07389   0.79156
