14
Generated by autodE on: 2022-06-22. E = -270.683217 Ha
C    -0.40728  -1.33928   0.75053
C    -0.79150   0.06011   0.36322
C    -2.13723   0.52606   0.82156
C     0.01202   0.88442  -0.36343
C     1.33501   0.55345  -0.87082
O     1.92655  -0.51555  -0.73763
H     0.54221  -1.34905   1.30818
H    -1.18833  -1.80986   1.36391
H    -0.23737  -1.95999  -0.14396
H    -2.91924  -0.15269   0.43778
H    -2.36290   1.55283   0.50214
H    -2.19975   0.46743   1.92252
H    -0.34172   1.89165  -0.60211
H     1.82707   1.38355  -1.43355
