34
Generated by autodE on: 2022-07-27. E = -1006.204831 Ha
C     3.01087  -2.94907   1.93433
N     1.99073  -2.06768   1.39612
C     2.30569  -1.13781   0.46403
O     3.47619  -1.00167   0.06669
C     1.19666  -0.29545  -0.04984
N    -0.04621  -0.75990   0.10890
C    -1.26698  -0.22124  -0.03315
C    -2.33276  -1.22480   0.01568
O    -2.09258  -2.42432   0.10735
O    -3.56381  -0.71672  -0.01605
C    -4.64868  -1.65311   0.05201
C    -1.51885   1.23457  -0.00845
O    -2.40491   1.80094  -0.61622
O    -0.70742   1.84925   0.86407
C    -0.75582   3.28099   0.88450
C     1.42236   0.90516  -0.90013
O     0.49735   1.40215  -1.56340
N     2.67818   1.38485  -0.94206
C     3.03406   2.45159  -1.85412
H     3.75733  -2.39328   2.52585
H     2.52804  -3.69272   2.57976
H     3.53865  -3.46874   1.12211
H     1.11374  -2.00846   1.90266
H    -0.12736  -1.76427   0.33785
H    -5.56471  -1.05397  -0.00229
H    -4.60351  -2.35682  -0.79171
H    -4.61545  -2.21272   0.99796
H    -1.74191   3.63169   1.22157
H    -0.54526   3.68143  -0.11757
H     0.02036   3.59958   1.58988
H     3.40246   0.77651  -0.55595
H     4.06129   2.77275  -1.64197
H     2.97366   2.13222  -2.90870
H     2.35832   3.30958  -1.72421
