72
Generated by autodE on: 2022-07-02. E = -1709.076194 Ha
C     3.05505   0.40671   3.59631
N     2.73462   0.44989   2.18386
C     1.86719  -0.41282   1.63591
O     1.45443  -1.41360   2.22905
C     1.43505  -0.05649   0.17854
C     2.69813   0.11670  -0.67443
C     3.76990  -0.78340  -0.56317
C     4.90813  -0.63872  -1.35728
C     5.00373   0.41758  -2.26929
C     3.95324   1.33180  -2.36830
C     2.81112   1.18434  -1.57464
O     0.77776   1.20161   0.20850
C    -0.63085   1.13714   0.35093
C    -0.94763   1.37908   1.87619
C    -2.31817   1.80100   2.33623
O    -0.02986   1.32988   2.67121
C    -1.21275   2.34877  -0.38691
C    -0.36759   3.40935  -0.74768
C    -0.87681   4.55233  -1.37068
C    -2.24353   4.66151  -1.63598
C    -3.09689   3.61911  -1.26250
C    -2.58813   2.47864  -0.63841
C    -1.06537  -0.32101  -0.18363
C    -2.08928  -0.91658   0.78569
C    -1.73170  -1.33480   2.07824
C    -2.69596  -1.73923   3.00222
C    -4.05107  -1.74164   2.65877
C    -4.42406  -1.33652   1.37612
C    -3.45402  -0.92817   0.45509
C    -1.58002  -0.28141  -1.65815
C    -1.86596  -1.72375  -2.15758
C    -0.45597  -2.27463  -2.49179
C     0.46304  -1.15562  -1.97224
C    -0.31565   0.07473  -2.44679
C     0.35718  -1.05107  -0.39743
C     0.50918  -2.47896   0.10756
O    -0.37123  -3.22059   0.48858
O     1.75664  -2.91190  -0.11645
C     2.06906  -4.24240   0.30326
H     3.32789  -0.61557   3.89255
H     2.19805   0.72847   4.21226
H     3.90512   1.07194   3.79361
H     2.91161   1.31292   1.67958
H     3.71827  -1.60689   0.14705
H     5.72859  -1.35317  -1.25649
H     5.89595   0.53142  -2.88952
H     4.01790   2.17041  -3.06570
H     2.00377   1.90825  -1.65896
H    -2.39793   1.58887   3.41002
H    -2.41005   2.88917   2.18837
H    -3.13679   1.31841   1.79393
H     0.69815   3.34145  -0.53843
H    -0.19680   5.36185  -1.64651
H    -2.64273   5.55323  -2.12483
H    -4.16970   3.69045  -1.45605
H    -3.27826   1.68891  -0.34936
H    -0.68442  -1.34320   2.36963
H    -2.38242  -2.05491   4.00037
H    -4.80667  -2.05600   3.38261
H    -5.47724  -1.32859   1.08521
H    -3.78545  -0.60056  -0.52890
H    -2.42488   0.39242  -1.80603
H    -2.51152  -1.68661  -3.04694
H    -2.37713  -2.33640  -1.40564
H    -0.25915  -3.26352  -2.05837
H    -0.30821  -2.36616  -3.57771
H     1.50099  -1.25205  -2.30282
H     0.12726   1.03576  -2.17473
H    -0.48122   0.06094  -3.53421
H     1.43704  -4.97547  -0.21828
H     3.12296  -4.40109   0.04598
H     1.92600  -4.34141   1.38942
