39
Generated by autodE on: 2022-07-27. E = -976.996104 Ha
C     0.71950  -3.25557   3.04690
N     1.14622  -2.29910   2.04318
C     0.26458  -1.76357   1.18346
O    -0.90567  -2.14188   1.08204
C     0.78575  -0.72777   0.22095
O    -0.03106   0.17707  -0.23591
C    -1.10876   0.74943   0.38751
C    -0.98157   0.92951   1.79480
C    -1.85933   1.91620   2.53214
O    -0.06772   0.34768   2.43229
C    -2.01684   1.39233  -0.55676
C    -1.60894   1.64699  -1.88853
C    -2.46857   2.26012  -2.79702
C    -3.76522   2.62697  -2.41643
C    -4.19253   2.35604  -1.11339
C    -3.33812   1.74113  -0.19702
C     2.04733  -0.80809  -0.48743
C     2.50590   0.32824  -1.19899
C     3.69963   0.28067  -1.91028
C     4.46438  -0.89289  -1.92717
C     4.02318  -2.02223  -1.22805
C     2.82898  -1.98755  -0.51337
H     0.19640  -4.10028   2.57632
H     1.60268  -3.63363   3.57610
H     0.03519  -2.79031   3.77649
H     2.04838  -1.84700   2.15379
H    -1.31444   2.23851   3.43054
H    -2.13612   2.79104   1.92929
H    -2.78797   1.42164   2.86192
H    -0.60584   1.36159  -2.20705
H    -2.12257   2.45294  -3.81563
H    -4.43815   3.10448  -3.13218
H    -5.20953   2.61211  -0.80622
H    -3.71525   1.50275   0.79617
H     1.92340   1.24947  -1.16674
H     4.04429   1.16632  -2.44840
H     5.40392  -0.92587  -2.48316
H     4.61138  -2.94210  -1.24700
H     2.48745  -2.88240   0.00438
