23
Generated by autodE on: 2022-06-28. E = -351.521381 Ha
C     3.57837  -0.23525  -1.19937
C     2.56526  -0.04714  -0.32526
C     2.82949   0.29787   1.11813
C     1.18044  -0.17571  -0.77463
C     0.07892  -0.00582  -0.00097
C    -1.27455  -0.14369  -0.49900
C    -2.42449   0.01983   0.20280
C    -2.48619   0.38512   1.65880
C    -3.76155  -0.16074  -0.45863
H     3.38287  -0.48503  -2.24679
H     4.62350  -0.14443  -0.89060
H     3.90771   0.36424   1.32084
H     2.39592  -0.45849   1.79336
H     2.36635   1.26170   1.38747
H     1.04194  -0.43044  -1.83233
H     0.20932   0.24882   1.05431
H    -1.36329  -0.40829  -1.55967
H    -3.06304   1.31710   1.79392
H    -1.50096   0.52326   2.12226
H    -3.02695  -0.39339   2.22561
H    -4.34674  -0.94776   0.05029
H    -3.66772  -0.42928  -1.52111
H    -4.36336   0.76284  -0.38336
