40
Generated by autodE on: 2022-06-28. E = -1068.565428 Ha
C     3.38398  -2.87483   0.74171
N     3.03706  -1.48267   0.56583
C     1.79409  -1.09960   0.20530
O     0.88258  -1.94495   0.04159
C     1.56789   0.33492  -0.01033
C     2.53200   1.34071   0.32224
O     3.71901   1.13792   0.61314
O     2.02285   2.59955   0.34804
C     2.94381   3.65966   0.61071
N     0.31160   0.68851  -0.53668
C     0.29472   1.53402  -1.74859
C    -0.79273   0.10997  -0.10820
C    -0.83287  -0.44928   1.29083
O    -0.20735  -0.00437   2.23032
O    -1.72069  -1.43362   1.38475
C    -1.87508  -2.03745   2.67786
C    -2.02373   0.05867  -0.91330
C    -3.24249   0.50060  -0.36571
C    -4.41014   0.45040  -1.12540
C    -4.38022  -0.06291  -2.42690
C    -3.17659  -0.52749  -2.96710
C    -2.00163  -0.46474  -2.21859
H     2.63480  -3.38886   1.36294
H     4.35980  -2.93891   1.24029
H     3.44920  -3.41679  -0.21807
H     3.74193  -0.74875   0.62709
H     2.35845   4.58617   0.56470
H     3.39385   3.55138   1.60872
H     3.74454   3.68474  -0.14380
H     1.08365   2.28291  -1.64933
H     0.49644   0.91328  -2.63045
H    -0.67656   2.02971  -1.84701
H    -0.92367  -2.48525   2.99927
H    -2.19917  -1.28923   3.41488
H    -2.64053  -2.81212   2.55787
H    -3.26776   0.89675   0.65147
H    -5.34897   0.81009  -0.69890
H    -5.29793  -0.10782  -3.01767
H    -3.15269  -0.94522  -3.97592
H    -1.06693  -0.84579  -2.63243
