49
Generated by autodE on: 2022-12-30. E = -1161.851126 Ha
C    -0.58591  -2.86962  -4.27705
N    -0.33156  -1.72301  -3.42382
C     0.47408  -1.82070  -2.36600
O     1.20859  -2.75034  -2.08564
N     0.51543  -0.58911  -1.57023
N     1.44261   0.31981  -1.90732
N     1.38842   1.27123  -1.02787
C     0.42641   0.99963  -0.09602
C    -0.15524  -0.22150  -0.43381
C    -1.25844  -1.07725   0.17553
O    -0.95538  -1.44520   1.50333
C     0.30472  -2.08742   1.69492
O    -1.29117  -2.23299  -0.64121
C    -2.23050  -3.24499  -0.31223
C    -2.63687  -0.38437   0.17844
C    -2.70880   1.13715   0.30126
C    -2.29104   1.76355   1.63295
C    -0.83274   1.59679   2.07285
C     0.25653   1.99131   1.04388
C    -0.02610   3.38757   0.46016
C     1.58744   1.93306   1.83475
O     2.01409   0.85486   2.27054
N     2.23658   3.08499   2.06424
C     3.47010   3.12168   2.82681
H    -1.23993  -3.60196  -3.77450
H    -1.07332  -2.52826  -5.19823
H     0.35985  -3.36520  -4.53417
H    -0.95424  -0.92285  -3.47801
H     0.27799  -2.53578   2.69738
H     1.12990  -1.36126   1.64714
H     0.46809  -2.87878   0.94760
H    -3.25934  -2.95383  -0.57983
H    -1.94786  -4.12971  -0.89897
H    -2.19239  -3.49739   0.75878
H    -3.22852  -0.85925   0.97644
H    -3.10278  -0.65564  -0.78025
H    -3.76230   1.41041   0.12595
H    -2.15088   1.59536  -0.53044
H    -2.53303   2.83772   1.58589
H    -2.92564   1.34841   2.43505
H    -0.67764   2.23377   2.95902
H    -0.64781   0.56642   2.39243
H    -0.93066   3.36819  -0.16110
H    -0.18930   4.12329   1.26231
H     0.80100   3.72796  -0.17785
H     1.87340   3.95055   1.68419
H     4.25158   2.50949   2.34947
H     3.31838   2.73843   3.84812
H     3.81994   4.15937   2.88629
