49
Generated by autodE on: 2022-12-30. E = -1161.731399 Ha. Imaginary frequency = -305.2 cm-1
C    -0.02576  -3.64214  -3.71425
N    -0.01036  -2.39773  -2.97437
C     1.13898  -1.75392  -2.71179
O     2.23238  -1.98956  -3.21924
N     0.91773  -0.73661  -1.74730
N     1.76231   0.14922  -1.50919
N     1.96310   1.03232  -0.78427
C     0.17396   0.84191   0.47064
C    -0.36198  -0.21880   0.12832
C    -1.47786  -1.19189   0.26823
O    -1.10894  -2.37649   0.93269
C    -0.09560  -3.17853   0.34109
O    -1.96865  -1.45899  -1.03745
C    -3.13621  -2.27400  -1.12543
C    -2.53176  -0.52915   1.18597
C    -2.89734   0.91513   0.80145
C    -2.43574   2.00131   1.79369
C    -0.98361   2.00429   2.29591
C     0.15452   2.11489   1.23271
C    -0.08892   3.29299   0.27643
C     1.47221   2.20922   2.03052
O     1.87640   1.23642   2.67878
N     2.11993   3.38403   2.02988
C     3.34397   3.57450   2.78481
H     0.42569  -4.46963  -3.13982
H    -1.06549  -3.90443  -3.94700
H     0.52991  -3.53756  -4.65705
H    -0.80392  -2.14667  -2.37713
H     0.08487  -4.01021   1.03551
H     0.84128  -2.61381   0.20850
H    -0.41079  -3.58871  -0.63030
H    -4.04936  -1.69330  -0.91897
H    -3.17779  -2.64671  -2.15839
H    -3.08182  -3.13130  -0.43789
H    -2.11498  -0.57260   2.20190
H    -3.41576  -1.18213   1.19170
H    -3.99238   0.99925   0.72039
H    -2.51432   1.13531  -0.20673
H    -2.67272   2.98488   1.35659
H    -3.06181   1.92234   2.69923
H    -0.87173   2.86173   2.98054
H    -0.78228   1.10258   2.89284
H    -0.98825   3.10887  -0.32625
H    -0.25045   4.22491   0.83997
H     0.75485   3.42982  -0.41407
H     1.77175   4.14792   1.46322
H     4.14301   2.90567   2.42678
H     3.18469   3.36784   3.85447
H     3.67446   4.61382   2.66951
