20
Generated by autodE on: 2022-05-29. E = -566.002811 Ha
C     3.83923   0.20917   0.36649
N     2.60381  -0.21695  -0.25944
C     1.40497   0.15351   0.24349
O     1.32988   0.87078   1.25731
C     0.21349  -0.33904  -0.47837
C     0.38611  -1.13815  -1.62781
N     0.59233  -1.79462  -2.57299
N    -1.07037  -0.05143  -0.08856
C    -2.14895  -0.61569  -0.93434
C    -1.39609   0.68243   0.97130
C    -2.72984   0.95225   1.32758
N    -3.80500   1.22435   1.69468
H     3.91188  -0.15457   1.40408
H     3.92003   1.30768   0.38827
H     4.68117  -0.19482  -0.20835
H     2.65380  -0.80891  -1.08139
H    -2.05653  -1.70818  -0.94554
H    -3.12202  -0.33321  -0.52519
H    -2.04554  -0.22077  -1.95217
H    -0.58027   1.08300   1.57247
