20
Generated by autodE on: 2022-07-26. E = -565.999202 Ha
C    -1.34306  -2.72884   1.54427
N    -0.98306  -1.88950   0.41866
C    -0.18830  -0.80970   0.57543
O     0.19667  -0.43015   1.69042
C     0.25084  -0.13887  -0.67206
C     0.29211  -0.87421  -1.87377
N     0.28994  -1.51859  -2.84987
N     0.84179   1.09601  -0.65144
C     1.79220   1.41230  -1.74186
C     0.63975   2.05012   0.25248
C    -0.44475   2.07913   1.14952
N    -1.35564   2.21699   1.86580
H    -2.05712  -3.48825   1.20375
H    -1.81138  -2.13305   2.34233
H    -0.46325  -3.23704   1.97256
H    -1.26569  -2.17280  -0.51387
H     2.55331   0.62468  -1.79588
H     2.25413   2.38366  -1.54310
H     1.23797   1.45987  -2.68831
H     1.30093   2.91597   0.22724
