34
Generated by autodE on: 2022-05-29. E = -1188.672593 Ha. Imaginary frequency = -271.0 cm-1
C     3.16001  -2.93025   0.12895
N     2.16680  -1.92585   0.45487
C     2.26859  -0.68347  -0.03784
O     3.23809  -0.25670  -0.67611
C     1.13376   0.21540   0.21378
C     0.55493   1.27715   0.48585
C     0.56368   2.66549   0.96672
F     1.68617   2.95072   1.64981
F    -0.47151   2.94040   1.78185
F     0.49396   3.53134  -0.06330
C    -1.56359   1.14719  -0.43715
C    -2.15888   0.75828   0.79536
N    -2.65657   0.53543   1.82391
N    -1.13710   0.28224  -1.38525
C    -0.67575   0.90254  -2.64355
C    -0.64129  -0.94639  -1.07579
C     0.15693  -1.63361  -2.02550
N     0.85345  -2.23515  -2.74078
C    -1.26745  -1.83524  -0.01723
O    -0.58496  -2.44355   0.81370
N    -2.59641  -1.96805  -0.10674
C    -3.35236  -2.66737   0.91649
H     3.13975  -3.18204  -0.94514
H     4.16998  -2.57358   0.37681
H     2.95256  -3.83779   0.70937
H     1.23080  -2.22281   0.75796
H    -1.83376   2.14451  -0.78716
H     0.39895   1.12005  -2.55694
H    -1.23262   1.83024  -2.80692
H    -0.85591   0.21092  -3.47391
H    -3.10309  -1.42923  -0.80301
H    -3.26463  -2.14865   1.88494
H    -2.98223  -3.69565   1.03578
H    -4.40657  -2.69574   0.61785
