19
Generated by autodE on: 2022-10-07. E = -585.858046 Ha
C     2.92767  -2.26921   1.12105
N     1.54949  -1.84656   0.96250
C     1.24686  -0.70024   0.32339
O     2.12594   0.04000  -0.14163
C    -0.18767  -0.31589   0.17600
N    -0.34942   0.84174  -0.43025
C    -0.55464   1.86493  -0.96564
C    -0.78258   3.05024  -1.58634
N    -0.97777   4.07295  -2.12200
C    -1.46107  -0.96213   0.55872
C    -1.44928  -2.30550   1.24025
O    -2.52317  -0.39307   0.30985
H     3.51108  -1.53022   1.69278
H     2.94117  -3.22418   1.66000
H     3.41920  -2.40494   0.14476
H     0.81825  -2.42894   1.34649
H    -0.93960  -2.24695   2.21565
H    -2.48754  -2.61978   1.40480
H    -0.93974  -3.06030   0.62079
