10
Generated by autodE on: 2022-10-07. E = -455.051699 Ha
O    -2.21189   0.72222   1.06270
C    -1.97283  -0.02883   0.07730
O    -2.83773  -0.61238  -0.63415
C    -0.52819  -0.26973  -0.31153
C     0.52838   0.26961   0.31186
C     1.97291   0.02901  -0.07743
O     2.83786   0.61364   0.63308
O     2.21155  -0.72354  -1.06179
H    -0.36147  -0.93191  -1.16813
H     0.36165   0.93185   1.16840
