49
Generated by autodE on: 2022-06-20. E = -1037.279937 Ha
C    -3.16657   2.62117   1.80080
N    -2.46862   1.58843   1.06100
C    -1.38408   0.97225   1.55718
O    -0.96946   1.22764   2.69549
C    -0.60105   0.02800   0.58966
C    -1.51677  -0.64408  -0.44160
C    -1.09978  -0.77962  -1.77249
C    -1.89367  -1.45010  -2.70885
C    -3.12082  -1.99905  -2.32838
C    -3.54571  -1.87389  -1.00131
C    -2.75057  -1.20448  -0.06873
C     0.21569  -1.01201   1.42817
C    -0.38769  -2.39904   1.59726
C     1.60147  -1.01535   0.76904
C     2.71232  -1.61366   1.61881
C     1.78621   0.47717   0.36600
C     2.31727   1.36983   1.49902
C     2.78935   0.51149  -0.79246
O     3.98402   0.68901  -0.64312
O     2.24526   0.26343  -1.98597
C     3.14094   0.19444  -3.10400
N     0.44449   0.82031  -0.06904
C     0.16776   2.15696  -0.53348
H    -2.51051   3.48509   1.99776
H    -3.52334   2.24012   2.77026
H    -4.02986   2.95772   1.21353
H    -2.76131   1.37896   0.11298
H    -0.13873  -0.35562  -2.06127
H    -1.54887  -1.54255  -3.74190
H    -3.74344  -2.52078  -3.05924
H    -4.50197  -2.30071  -0.68892
H    -3.09754  -1.12101   0.96250
H     0.32694  -0.56627   2.42557
H    -1.38040  -2.35343   2.06855
H     0.25763  -3.00694   2.24978
H    -0.49012  -2.92500   0.63596
H     1.52638  -1.58635  -0.17202
H     2.75429  -1.14997   2.61630
H     3.69395  -1.48319   1.13741
H     2.55197  -2.69340   1.75736
H     3.32280   1.06854   1.81823
H     1.63944   1.32911   2.36117
H     2.37418   2.41520   1.16002
H     2.51563  -0.01678  -3.97911
H     3.87649  -0.61003  -2.95908
H     3.66752   1.15071  -3.23475
H     0.03452   2.90691   0.27279
H     0.99461   2.50221  -1.17306
H    -0.74237   2.16410  -1.15333
