12
Generated by autodE on: 2022-06-20. E = -157.300302 Ha
C    -1.94324  -0.08252   0.27337
C    -0.45892  -0.19275   0.44825
C     0.45892   0.19280  -0.44823
C     1.94324   0.08249  -0.27338
H    -2.39453   0.54036   1.06614
H    -2.20807   0.35830  -0.70061
H    -2.42971  -1.07147   0.34662
H    -0.11321  -0.62694   1.39689
H     0.11321   0.62700  -1.39686
H     2.20809  -0.35787   0.70080
H     2.42983   1.07133  -0.34721
H     2.39439  -0.54089  -1.06585
