37
Generated by autodE on: 2022-07-27. E = -879.905966 Ha
C    -0.95267   2.66225   2.59706
N    -0.68829   1.88616   1.40272
C    -1.12731   0.61210   1.27959
O    -1.90504   0.12118   2.11454
C    -0.72006  -0.13456   0.05987
C    -1.63063  -1.16367  -0.45180
C    -1.12432  -2.37573  -0.97027
C    -1.98228  -3.36652  -1.44676
C    -3.36797  -3.17923  -1.40574
C    -3.88585  -1.98841  -0.88254
C    -3.03132  -0.99246  -0.41261
N     0.47468   0.10517  -0.55011
C     0.53035   0.03420  -2.02900
C     1.60454   0.38881   0.16426
C     1.68969  -0.01023   1.60266
C     2.71546   1.09779  -0.45188
O     2.77720   1.57505  -1.58270
O     3.76036   1.20900   0.40855
C     4.91865   1.88328  -0.08371
H    -0.65994   2.10877   3.50370
H    -2.02152   2.91557   2.68877
H    -0.37533   3.59386   2.54910
H    -0.03192   2.25486   0.72320
H    -0.04566  -2.54533  -0.98448
H    -1.56589  -4.29682  -1.84067
H    -4.04037  -3.95726  -1.77445
H    -4.96663  -1.83118  -0.84777
H    -3.44952  -0.06550  -0.01791
H     0.66544   1.04833  -2.41786
H     1.37074  -0.59124  -2.35097
H    -0.41244  -0.37118  -2.39971
H     2.70634  -0.35498   1.83350
H     1.45466   0.80822   2.30527
H     0.97481  -0.82260   1.80781
H     5.64387   1.88010   0.73919
H     5.33880   1.36010  -0.95615
H     4.67959   2.91885  -0.36923
