37
Generated by autodE on: 2022-06-20. E = -879.908790 Ha
C    -1.46854   2.23053   2.58926
N    -1.32388   1.31938   1.47377
C    -0.26703   0.48402   1.37914
O     0.62890   0.48843   2.23809
C    -0.29332  -0.46887   0.23404
C    -1.56711  -0.85858  -0.39036
C    -1.68225  -0.90290  -1.79675
C    -2.88467  -1.26056  -2.40551
C    -4.00440  -1.57224  -1.62661
C    -3.90784  -1.52677  -0.23137
C    -2.70451  -1.17774   0.38166
N     0.86461  -1.02423  -0.19263
C     0.84262  -2.40252  -0.72830
C     2.08922  -0.42067  -0.12419
C     3.32913  -1.26672  -0.12754
C     2.16825   1.01743  -0.24256
O     1.23484   1.80965  -0.38280
O     3.45573   1.46043  -0.25690
C     3.63847   2.86297  -0.44042
H    -1.57051   1.68986   3.54459
H    -2.36571   2.84231   2.43401
H    -0.59374   2.89524   2.67133
H    -2.04218   1.29429   0.75937
H    -0.81930  -0.63998  -2.41208
H    -2.95160  -1.28471  -3.49587
H    -4.94753  -1.84747  -2.10419
H    -4.77422  -1.77679   0.38562
H    -2.63601  -1.16800   1.47080
H     1.23406  -2.42184  -1.75306
H     1.47317  -3.03456  -0.09047
H    -0.17599  -2.79339  -0.70409
H     3.54973  -1.70705  -1.11664
H     4.19355  -0.66154   0.16390
H     3.24864  -2.10015   0.58796
H     4.71983   3.03931  -0.38352
H     3.12332   3.43457   0.34663
H     3.25940   3.18768  -1.42156
