22
Generated by autodE on: 2022-06-19. E = -628.966043 Ha
C    -3.95529   0.32847   0.18087
O    -2.70030  -0.35932   0.32108
C    -1.59628   0.31157  -0.03802
O    -1.62326   1.45657  -0.45227
C    -0.36076  -0.48002   0.11785
O    -0.35666  -1.76778   0.37664
N    -1.28931  -2.67648   0.55638
C     0.97972   0.08613  -0.05704
C     1.24186   1.45905   0.13645
C     2.53658   1.95761  -0.00874
C     3.59320   1.10692  -0.34649
C     3.34484  -0.25746  -0.53689
C     2.05555  -0.76445  -0.39566
H    -4.11927   0.60956  -0.86885
H    -3.96576   1.22885   0.81087
H    -4.72125  -0.38099   0.51269
H    -2.19029  -2.18062   0.47488
H     0.43260   2.13247   0.41085
H     2.72058   3.02265   0.15042
H     4.60450   1.50341  -0.46166
H     4.16184  -0.93092  -0.80602
H     1.86953  -1.82688  -0.55829
