32
Generated by autodE on: 2022-06-10. E = -893.561318 Ha
C    -1.72472   4.41044  -0.30841
N    -1.59081   2.97076  -0.19934
C    -0.39138   2.37471  -0.23376
O     0.67663   2.99581  -0.35207
C    -0.36860   0.88315  -0.09601
N     0.85593   0.41821  -0.05352
C     1.42791  -0.81882   0.00157
C     0.70216  -2.02120  -0.07079
N     0.14272  -3.04482  -0.13880
C     2.88013  -0.79844   0.06588
O     3.53955   0.23524   0.08731
O     3.41757  -2.02603   0.09708
C     4.84777  -2.10022   0.15598
C    -1.56958   0.04327   0.04067
C    -2.53863   0.00950  -0.97835
C    -3.67928  -0.78131  -0.83219
C    -3.86751  -1.53430   0.33105
C    -2.91152  -1.49661   1.35132
C    -1.76596  -0.71451   1.20945
H    -2.79048   4.66467  -0.34408
H    -1.23631   4.78007  -1.22283
H    -1.26432   4.92038   0.55313
H    -2.42295   2.40409  -0.07052
H     1.56199   1.17806  -0.09684
H     5.22414  -1.60876   1.06502
H     5.09298  -3.16842   0.17574
H     5.29710  -1.62546  -0.72851
H    -2.38628   0.59161  -1.88927
H    -4.42207  -0.81206  -1.63229
H    -4.76208  -2.15105   0.44344
H    -3.05848  -2.08039   2.26256
H    -1.01898  -0.68412   2.00522
