23
Generated by autodE on: 2022-06-17. E = -351.521382 Ha
C    -3.47723   1.45421  -0.30747
C    -2.53285   0.50165  -0.14419
C    -2.90571  -0.94585   0.05095
C    -1.11774   0.86726  -0.15483
C    -0.07807   0.00886  -0.00281
C     1.30962   0.42440  -0.02169
C     2.40184  -0.36822   0.12131
C     2.35087  -1.85530   0.32932
C     3.78580   0.21540   0.07914
H    -3.20332   2.50425  -0.44923
H    -4.54285   1.20859  -0.30379
H    -3.99638  -1.08149   0.03855
H    -2.51987  -1.32995   1.00990
H    -2.46903  -1.57873  -0.73947
H    -0.89932   1.93215  -0.29993
H    -0.28834  -1.05425   0.14217
H     1.48014   1.49784  -0.16863
H     2.86036  -2.12667   1.27083
H     2.90202  -2.37250  -0.47595
H     1.33228  -2.26275   0.36230
H     4.38154  -0.24749  -0.72810
H     4.32869   0.00346   1.01789
H     3.77366   1.30398  -0.07763
