33
Generated by autodE on: 2022-06-17. E = -748.117209 Ha. Imaginary frequency = -407.8 cm-1
C     1.80643   4.03352   0.65952
C     2.65772   2.91606   0.13002
C     3.93364   3.35178  -0.53064
C     2.33528   1.59791   0.21445
C     1.14697   1.03351   0.80583
C     0.89083  -0.30480   0.83310
C    -0.28889  -0.93356   1.37885
C    -1.29081  -0.12830   2.16677
C    -0.36497  -2.33661   1.37973
N    -1.27510  -2.89868  -0.33250
O    -0.46400  -2.29199  -1.25105
C    -0.84807  -0.94555  -1.41848
O    -0.18126  -0.15456  -2.06286
C    -2.07141  -0.86906  -0.70885
C    -3.03489   0.23857  -0.61304
O    -2.37754  -2.09865  -0.26591
H     2.37731   4.63471   1.38901
H     1.53478   4.72409  -0.15848
H     0.88108   3.69578   1.14316
H     4.52295   2.50020  -0.90069
H     3.72248   4.02692  -1.37946
H     4.55853   3.93247   0.17156
H     3.03929   0.87653  -0.21697
H     0.41899   1.71742   1.24978
H     1.62369  -0.97867   0.37561
H    -0.88865   0.08607   3.17310
H    -2.22953  -0.68502   2.29741
H    -1.52220   0.84061   1.70271
H    -1.08999  -2.82937   2.03086
H     0.53291  -2.91385   1.14928
H    -3.59913   0.19428   0.32872
H    -3.75261   0.21926  -1.45194
H    -2.48183   1.18782  -0.66590
