39
Generated by autodE on: 2022-10-07. E = -1217.284152 Ha
C    -3.69039  -2.43727  -0.86840
N    -2.58486  -1.50277  -0.83030
C    -2.09184  -1.05288   0.33493
O    -2.65371  -1.18808   1.42539
C    -0.80709  -0.22068   0.22719
C    -1.19934   1.24173   0.57216
O    -1.44565   1.57636   1.73419
N    -1.26351   2.06332  -0.48718
C    -1.34285   3.49972  -0.31888
O    -0.27446  -0.28644  -1.08788
C     1.16884  -0.23563  -1.06680
C     1.67585  -1.52352  -1.72803
C     1.61837   0.95548  -1.93690
C     3.09634   1.08458  -2.20392
O     0.80004   1.60643  -2.57700
C     1.55871  -0.12557   0.42637
C     1.87434   1.30739   0.92188
O     1.86171   2.23313   0.06429
O     2.11825   1.43816   2.14275
C     0.32051  -0.69913   1.15374
C     0.44161  -2.23099   1.34267
O     1.31501  -2.59353   2.17012
O    -0.29632  -2.99123   0.66237
H    -4.06255  -2.52067  -1.89747
H    -4.50722  -2.08566  -0.22308
H    -3.38497  -3.43908  -0.51872
H    -1.95686  -1.44538  -1.62600
H    -0.81874   1.71650  -1.34105
H    -2.07454   3.75212   0.46003
H    -1.65516   3.96392  -1.26366
H    -0.36364   3.91667  -0.02607
H     1.24790  -2.38720  -1.20307
H     1.35080  -1.56159  -2.77940
H     2.77155  -1.58839  -1.69383
H     3.33482   0.49368  -3.10480
H     3.71252   0.71250  -1.37560
H     3.33689   2.13528  -2.41231
H     2.43830  -0.74209   0.65552
H     0.23505  -0.24851   2.14833
