29
Generated by autodE on: 2022-10-13. E = -762.116720 Ha
C    -3.25143  -2.30601  -0.10884
N    -2.30827  -1.38765   0.49961
C    -1.16150  -1.05607  -0.15132
O    -0.82447  -1.63964  -1.19784
C    -0.36814   0.06962   0.35808
O     0.76342   0.38714  -0.28891
C     1.69195  -0.39974  -0.74858
C     1.79353  -1.81433  -0.35503
C     2.71562   0.34878  -1.52276
C     3.90398  -0.41993  -2.02764
O     2.56359   1.54725  -1.73936
C    -0.86042   1.24237   1.12181
O    -0.55485   2.39814   0.80726
N    -1.65465   0.97252   2.19507
C    -2.13889   2.05111   3.03860
H    -4.05488  -2.51312   0.60908
H    -3.69892  -1.89760  -1.03180
H    -2.75499  -3.25247  -0.36603
H    -2.66306  -0.74942   1.20323
H     1.36786  -1.92526   0.66033
H     1.20207  -2.48056  -1.00408
H     2.84197  -2.13753  -0.36315
H     3.58433  -1.30594  -2.59876
H     4.51496   0.23429  -2.66218
H     4.51230  -0.78187  -1.18221
H    -1.57768   0.05307   2.62055
H    -2.85087   1.64038   3.76548
H    -1.31957   2.54961   3.58430
H    -2.65105   2.80855   2.42907
