39
Generated by autodE on: 2022-10-07. E = -1217.188775 Ha. Imaginary frequency = -229.2 cm-1
C    -3.39305  -2.76829  -0.25966
N    -2.54983  -1.65177   0.11726
C    -1.80251  -1.02189  -0.80233
O    -1.81827  -1.32398  -2.00782
C    -0.98713   0.16807  -0.38183
C    -1.64467   1.40954   0.14128
O    -1.50632   2.49597  -0.43494
N    -2.37177   1.24977   1.26713
C    -2.96950   2.39886   1.91742
O     0.06241   0.48044  -1.14164
C     1.08182  -0.29982  -1.44210
C     0.98701  -1.78212  -1.45306
C     2.17409   0.45623  -2.09433
C     3.40733  -0.30511  -2.49896
O     2.06977   1.66778  -2.27424
C     1.79627  -0.18759   0.96662
C     2.59926   1.07727   0.77098
O     1.99442   2.17914   0.87234
O     3.82775   0.92915   0.51317
C     0.55620  -0.15951   1.54579
C    -0.18462  -1.36122   2.05501
O    -1.33851  -1.13133   2.56704
O     0.31918  -2.50001   1.92974
H    -2.80048  -3.64039  -0.58569
H    -4.00124  -3.06176   0.60551
H    -4.06338  -2.48962  -1.08632
H    -2.31769  -1.51632   1.11054
H    -2.15086   0.42465   1.84365
H    -3.59631   2.96131   1.21010
H    -2.20983   3.09265   2.31854
H    -3.59979   2.05227   2.74668
H     0.47577  -2.16079  -0.55762
H     1.98939  -2.22287  -1.48861
H     0.41075  -2.12703  -2.32904
H     3.16390  -1.04225  -3.28146
H     4.15298   0.40285  -2.88213
H     3.82575  -0.85288  -1.64208
H     2.31733  -1.13880   0.84073
H     0.17631   0.81245   1.85716
