29
Generated by autodE on: 2022-05-26. E = -895.435596 Ha
C     4.58068  -0.22268  -0.71098
N     3.22869   0.29036  -0.64175
C     2.21577  -0.39168  -0.07592
O     2.29968  -1.50415   0.45619
N     0.98025   0.24676  -0.11107
N     0.78770   1.48303  -0.67112
C    -0.44809   1.82158  -0.58108
C    -1.00333   3.11244  -1.05815
C    -1.30196   0.75342   0.05822
F    -2.01295   1.23923   1.13065
C    -2.22621  -0.03491  -0.93110
C    -2.97601  -1.05488  -0.09348
C    -2.07818  -2.00779   0.19367
C    -0.78688  -1.55544  -0.45916
O    -1.24252  -0.82631  -1.59952
C    -0.23587  -0.35196   0.41651
C    -0.13765  -0.65013   1.84068
N    -0.08761  -0.89229   2.97364
H     4.62214  -1.18837  -0.19361
H     5.28951   0.46671  -0.22642
H     4.89905  -0.36992  -1.75535
H     3.01225   1.19407  -1.05082
H    -1.49568   3.64194  -0.22647
H    -0.20920   3.74705  -1.47255
H    -1.77053   2.93819  -1.83077
H    -2.78995   0.59744  -1.62448
H    -4.00418  -0.95333   0.25098
H    -2.18356  -2.88155   0.83538
H    -0.02287  -2.29531  -0.71161
