47
Generated by autodE on: 2022-06-04. E = -3630.448938 Ha
C     3.92767   2.14305   0.02065
C     2.42542   2.13418   0.00103
O     1.77558   3.12814  -0.31570
C     1.69395   0.90904   0.35861
C     2.02777  -0.39613   0.44739
Br    3.65682  -1.28226   0.20649
C     0.71863  -1.16157   0.61900
O    -0.05101  -0.21766   1.36177
C     0.16748   0.89432   0.47895
C    -0.36124   0.36704  -0.88577
C     0.02970  -1.13744  -0.78485
C    -1.31296  -1.90525  -0.90168
C    -1.35612  -3.11493   0.03222
C    -1.95021  -2.94971   1.40249
O    -0.87623  -4.17302  -0.34517
N    -2.35004  -0.92614  -0.65064
C    -3.67299  -1.34007  -1.07883
C    -1.90235   0.40242  -1.11636
C    -2.15318   0.59491  -2.62612
C    -2.56169   1.51141  -0.29395
C    -2.52932   2.84645  -0.72816
C    -3.05812   3.87131   0.06164
C    -3.63619   3.58036   1.30104
C    -3.67427   2.25485   1.74282
C    -3.13886   1.23259   0.95397
H     4.31268   1.52576  -0.80774
H     4.28659   3.17307  -0.10368
H     4.31802   1.71431   0.95592
H     0.79191  -2.12908   1.12628
H    -0.28746   1.81026   0.86186
H     0.14496   0.89503  -1.70093
H     0.72332  -1.47578  -1.56202
H    -1.36648  -2.32636  -1.92682
H    -1.67651  -3.80855   2.02966
H    -3.04831  -2.90398   1.31909
H    -1.63191  -2.00452   1.86197
H    -3.72479  -1.59699  -2.15612
H    -3.99808  -2.22853  -0.51652
H    -4.40249  -0.54160  -0.88085
H    -1.73514  -0.25441  -3.18839
H    -3.22623   0.66839  -2.85190
H    -1.66402   1.50534  -2.99678
H    -2.07154   3.10030  -1.68520
H    -3.01683   4.90351  -0.29503
H    -4.05239   4.38082   1.91748
H    -4.12183   2.01271   2.71020
H    -3.15766   0.20046   1.30329
