47
Generated by autodE on: 2022-06-04. E = -3630.357788 Ha. Imaginary frequency = -306.6 cm-1
C     4.22152   1.71836   1.01902
C     2.75080   1.90023   0.76061
O     2.26071   3.01775   0.59774
C     1.87311   0.72865   0.69288
C     2.07351  -0.60562   0.62930
Br    3.62923  -1.63939   0.60965
C     0.68446  -1.23710   0.39157
O    -0.11820  -0.32719   1.15170
C     0.34194   0.86372   0.48344
C     0.03693   0.50582  -0.97732
C     0.30088  -0.85462  -1.05024
C    -1.85804  -1.77116  -1.31601
C    -1.58921  -3.02796  -0.67208
C    -0.84064  -4.03521  -1.52425
O    -1.81807  -3.30432   0.52078
N    -2.53239  -0.70420  -0.76649
C    -3.27538  -0.91105   0.48550
C    -2.31081   0.53860  -1.29316
C    -2.12415   0.64095  -2.78974
C    -2.85286   1.74463  -0.61484
C    -3.51282   2.74272  -1.36281
C    -3.98832   3.90697  -0.75689
C    -3.80924   4.11460   0.61309
C    -3.15306   3.13961   1.37099
C    -2.68471   1.97265   0.76863
H     4.69293   1.20532   0.16500
H     4.39417   1.09311   1.90815
H     4.69125   2.70140   1.15400
H     0.55643  -2.27446   0.71631
H    -0.09806   1.77376   0.89847
H     0.18146   1.22395  -1.78183
H     0.67344  -1.40464  -1.91216
H    -1.69552  -1.73431  -2.38580
H     0.21295  -4.05817  -1.19555
H    -0.86501  -3.80672  -2.59826
H    -1.25793  -5.03831  -1.34814
H    -3.77945  -1.87956   0.42850
H    -2.61368  -0.91438   1.35848
H    -4.03039  -0.12655   0.58921
H    -1.38282  -0.05925  -3.18654
H    -1.79679   1.65015  -3.06406
H    -3.08237   0.43800  -3.30186
H    -3.67485   2.60667  -2.43181
H    -4.50412   4.65556  -1.36296
H    -4.17613   5.02814   1.08662
H    -2.99914   3.28850   2.44232
H    -2.17229   1.23785   1.38417
