47
Generated by autodE on: 2022-06-23. E = -1466.892594 Ha
C     4.59117  -1.95702   0.49832
N     3.27570  -1.66711  -0.03958
C     2.18578  -1.68025   0.74034
O     2.13997  -2.09536   1.89457
C     0.92223  -1.18145   0.04572
O    -0.22834  -1.24956   0.88144
C    -1.17676  -0.96125  -0.11374
C    -2.60788  -1.13118   0.38127
O    -3.50981  -1.50535  -0.32987
O    -2.69611  -0.82259   1.66012
C    -4.01545  -0.83311   2.23769
O    -0.90063  -1.90949  -1.15329
C     0.45488  -2.03489  -1.15864
O     1.06933  -2.68397  -1.95121
C    -0.69620   0.44769  -0.68103
O    -0.86217   0.59570  -2.05977
C    -2.16807   0.55577  -2.63780
C    -1.39256   1.60471   0.04239
O    -2.61494   1.60709   0.06959
C    -0.60263   2.71707   0.60304
C    -1.32726   3.98324   0.92921
C     0.71181   2.53912   0.92421
C     1.49854   3.60347   1.62037
C     1.38660   1.24659   0.68375
O     2.41238   0.94663   1.26882
C     0.85866   0.30529  -0.42547
O     1.65287   0.42160  -1.56773
C     1.92361   1.73629  -2.06070
H     4.55516  -2.86517   1.11508
H     4.95954  -1.12655   1.12458
H     5.29195  -2.11581  -0.33060
H     3.20824  -1.17774  -0.92921
H    -4.64890  -0.09707   1.72290
H    -3.88262  -0.55864   3.28952
H    -4.45847  -1.83457   2.15215
H    -2.00451   0.57659  -3.72324
H    -2.77303   1.42715  -2.34633
H    -2.70199  -0.36615  -2.36804
H    -2.35723   3.96198   0.55507
H    -1.35383   4.14170   2.02066
H    -0.79888   4.84826   0.49843
H     1.04719   3.83859   2.59886
H     1.47985   4.53530   1.03295
H     2.53821   3.29525   1.77820
H     2.61133   2.27794  -1.39054
H     0.99787   2.31368  -2.19137
H     2.40923   1.59955  -3.03518
