21
Generated by autodE on: 2022-06-23. E = -777.396899 Ha
C    -4.47095   1.43385   0.09725
N    -3.28751   0.61705  -0.06996
C    -2.03742   1.06204   0.19110
O    -1.76420   2.19805   0.59867
C    -0.98524   0.07428  -0.04989
O     0.32367   0.44754   0.18766
C     1.09097  -0.55253  -0.08691
C     2.57439  -0.51471   0.04774
O     3.25649  -1.47833  -0.21068
O     2.97817   0.66969   0.46378
C     4.40014   0.84596   0.62863
O     0.45161  -1.59416  -0.49529
C    -1.00674  -1.24958  -0.50443
O    -1.81973  -2.06976  -0.85436
H    -5.00698   1.55457  -0.85753
H    -4.17035   2.42369   0.45963
H    -5.16235   0.98436   0.82753
H    -3.40009  -0.33682  -0.40374
H     4.53332   1.87958   0.96428
H     4.91072   0.67973  -0.33012
H     4.77909   0.14095   1.38152
