47
Generated by autodE on: 2022-06-23. E = -1466.855165 Ha. Imaginary frequency = -280.2 cm-1
C     4.68653  -1.64602   1.00261
N     3.35866  -1.72015   0.42448
C     2.30052  -1.14992   1.02913
O     2.35083  -0.59316   2.13051
C     1.03582  -1.20845   0.27139
O    -0.11746  -0.93717   0.94484
C    -1.09400  -1.05689   0.02689
C    -2.49272  -1.16186   0.54890
O    -3.36869  -1.77584  -0.01600
O    -2.61733  -0.45278   1.65614
C    -3.94098  -0.32605   2.20990
O    -0.70936  -1.92641  -0.94419
C     0.69573  -1.98082  -0.89586
O     1.35393  -2.54732  -1.73564
C    -0.81856   0.71328  -1.12617
O    -1.31955   0.43528  -2.35068
C    -2.71877   0.31745  -2.63618
C    -1.52197   1.63146  -0.17673
O    -2.68188   1.97118  -0.36796
C    -0.78088   2.04627   1.04488
C    -1.58498   2.57939   2.18806
C     0.57653   1.98444   1.08753
C     1.34849   2.45553   2.27959
C     1.35571   1.53072  -0.09464
O     2.54938   1.79076  -0.20425
C     0.62834   0.77163  -1.15123
O     1.15869   0.49634  -2.33338
C     2.57237   0.38944  -2.57717
H     4.72252  -2.14957   1.98117
H     4.99545  -0.59850   1.14570
H     5.39369  -2.13746   0.32412
H     3.22864  -2.14239  -0.49241
H    -4.59697   0.17208   1.48267
H    -3.82809   0.28596   3.11049
H    -4.34138  -1.31719   2.46222
H    -2.77106  -0.24048  -3.58068
H    -3.17794   1.30602  -2.76616
H    -3.25357  -0.23956  -1.85942
H    -2.65466   2.59389   1.95038
H    -1.42551   1.95954   3.08535
H    -1.26511   3.60163   2.44795
H     1.01955   1.91615   3.18142
H     1.16392   3.52728   2.46250
H     2.42435   2.30096   2.14431
H     3.06627  -0.16359  -1.77224
H     3.01999   1.38588  -2.67726
H     2.65393  -0.15986  -3.52294
