43
Generated by autodE on: 2022-06-20. E = -1032.806509 Ha. Imaginary frequency = -309.4 cm-1
C    -4.23278   1.58589  -0.45386
N    -2.87143   1.10268  -0.58991
C    -2.11260   0.84352   0.48251
O    -2.48080   1.09963   1.63353
C    -0.75206   0.16388   0.27190
C    -0.92666  -1.31976   0.40163
O    -0.11089  -2.13610   0.79230
O    -2.14505  -1.68359  -0.01659
C    -2.43116  -3.08841  -0.03999
N     0.28461   0.78493   0.98723
C     0.23264   2.25408   1.12660
C     1.47887   0.15277   0.98874
C     2.75566   0.74964   1.46165
C     3.90567  -0.21768   1.50964
O     2.89337   1.92562   1.78023
C     1.59708  -0.02857  -1.26128
C     2.25860  -1.30617  -1.38259
O     3.48339  -1.46586  -1.41434
C     0.22204   0.17497  -1.64802
C    -0.48107  -0.90450  -2.45664
C    -0.04228   1.57376  -2.17868
H    -4.26072   2.48894   0.17282
H    -4.88485   0.82669   0.00957
H    -4.62234   1.83026  -1.44955
H    -2.56014   0.78848  -1.50039
H    -2.36118  -3.51203   0.97174
H    -1.72994  -3.61077  -0.70635
H    -3.45507  -3.17786  -0.42006
H     0.34555   2.53224   2.18148
H     1.04269   2.71718   0.55528
H    -0.72194   2.63293   0.75777
H     1.42692  -0.92557   1.06337
H     3.63048  -1.12433   2.07071
H     4.14922  -0.54187   0.48340
H     4.77857   0.26635   1.96605
H     2.26442   0.83663  -1.31961
H     1.59880  -2.19987  -1.42807
H    -0.07346  -0.90378  -3.48163
H    -0.35201  -1.91674  -2.05455
H    -1.56006  -0.71227  -2.53947
H     0.40187   1.64800  -3.18719
H    -1.10771   1.80890  -2.28504
H     0.42573   2.34834  -1.55857
