23
Generated by autodE on: 2022-06-20. E = -351.521380 Ha
C    -3.17290   1.00000  -1.79837
C    -2.17910   1.07496  -0.88587
C    -2.14617   2.17111   0.14828
C    -1.10890   0.07957  -0.88843
C    -0.06278   0.04135  -0.02537
C     0.97260  -0.97088  -0.07083
C     2.04159  -1.08516   0.75730
C     3.03444  -2.19937   0.58099
C     2.33787  -0.15184   1.89687
H    -3.98595   1.73108  -1.81861
H    -3.19405   0.20274  -2.54779
H    -3.00363   2.84960   0.03687
H    -1.22098   2.76571   0.06789
H    -2.16425   1.75500   1.16932
H    -1.17696  -0.69479  -1.66206
H     0.01097   0.80957   0.74904
H     0.86681  -1.71970  -0.86518
H     3.09542  -2.81741   1.49490
H     4.05022  -1.79658   0.41748
H     2.77929  -2.85410  -0.26519
H     3.33377   0.30708   1.76570
H     1.60230   0.65470   2.01193
H     2.38331  -0.71313   2.84695
