23
Generated by autodE on: 2022-06-20. E = -609.193683 Ha
C     5.07333   0.63026  -0.23285
O     4.02239  -0.32304  -0.08220
C     2.76108   0.16777  -0.09600
O     2.52210   1.37501  -0.22925
N     1.86115  -0.83407   0.05060
N     0.61717  -0.33298   0.03008
C    -0.47314  -1.03277   0.13736
C    -1.80950  -0.47257   0.10829
C    -2.07252   0.90682  -0.03923
C    -3.38462   1.37081  -0.05694
C    -4.45520   0.47510   0.07020
C    -4.20573  -0.89299   0.21526
C    -2.89396  -1.36494   0.23437
H     4.99015   1.16496  -1.19149
H     6.00940   0.05839  -0.20777
H     5.06447   1.36410   0.58780
H     0.56171   0.69450  -0.08398
H    -0.34355  -2.11117   0.25457
H    -1.25346   1.62273  -0.13970
H    -3.57731   2.43981  -0.17049
H    -5.48228   0.84648   0.05566
H    -5.03643  -1.59513   0.31386
H    -2.69397  -2.43295   0.34719
