46
Generated by autodE on: 2022-06-20. E = -960.691335 Ha. Imaginary frequency = -503.8 cm-1
C     0.97829   0.99309   3.19628
C     1.18885  -0.14080   2.50380
C     2.23629  -1.14337   2.90887
C     0.44292  -0.47552   1.25589
C     1.30919   0.70708  -0.10120
C     2.49620   0.00665  -0.63274
C     3.76170   0.31866  -0.10802
C     4.90137  -0.35534  -0.55234
C     4.79080  -1.35096  -1.52768
C     3.53305  -1.67368  -2.05092
C     2.39249  -1.00688  -1.60262
N     0.28867   1.01950  -0.94324
N    -0.80363   1.51732  -0.32173
C    -1.91629   1.43368  -1.10623
O    -1.98511   0.97411  -2.24577
O    -2.99302   1.89917  -0.44305
C    -4.24222   1.82439  -1.13180
C    -0.95592  -0.21924   1.16805
C    -1.80931  -1.07873   0.38376
C    -3.15834  -1.20808   0.48855
C    -3.91069  -2.12288  -0.43203
C    -4.00038  -0.50709   1.51478
H     0.23520   1.73119   2.88004
H     1.54525   1.21377   4.10504
H     2.77357  -0.83124   3.81626
H     1.78099  -2.13215   3.09141
H     2.97088  -1.28287   2.09783
H     0.74437  -1.42508   0.80212
H     1.51826   1.49697   0.62412
H     3.84525   1.09644   0.65449
H     5.87900  -0.10093  -0.13643
H     5.68122  -1.87918  -1.87649
H     3.43942  -2.45752  -2.80613
H     1.41505  -1.29226  -1.99927
H     0.10312   0.39953  -1.74004
H    -4.23005   2.46045  -2.02999
H    -4.47078   0.79006  -1.42658
H    -4.99984   2.19031  -0.42866
H    -1.41402   0.41194   1.92920
H    -1.30029  -1.67821  -0.38023
H    -4.66159  -1.55142  -1.00726
H    -3.24724  -2.63805  -1.14171
H    -4.47612  -2.88097   0.13884
H    -4.40532  -1.24294   2.23289
H    -3.45849   0.26060   2.08090
H    -4.87361  -0.03457   1.03605
