47
Generated by autodE on: 2022-06-02. E = -1463.080291 Ha
C     2.91908  -0.67851   1.57207
N     3.38419  -0.43417   0.21925
C     2.65638  -0.06747  -0.84110
O     3.11708   0.16030  -1.96067
C     1.16628   0.10775  -0.63481
C     0.16750  -0.78128  -0.78317
C     0.31616  -2.19471  -1.21551
F    -0.55434  -3.01447  -0.59840
F     0.11952  -2.35888  -2.54330
F     1.55580  -2.66116  -0.95647
C    -1.15703  -0.07930  -0.52928
C    -2.04735  -0.16551  -1.79257
O    -2.60206  -1.23569  -2.05353
N    -2.11213   0.94683  -2.52971
C    -2.84633   1.04850  -3.77405
C    -1.91912  -0.52646   0.71122
C    -1.26312  -1.18547   1.75783
C    -1.94384  -1.48802   2.93996
C    -3.28492  -1.12392   3.08987
C    -3.94294  -0.45645   2.05124
C    -3.26354  -0.15918   0.86836
O    -0.73139   1.30063  -0.33287
N     0.69381   1.38555  -0.36545
C     1.22800   2.12608   0.74037
C     2.44405   2.79040   0.55137
C     3.03484   3.45607   1.62808
C     2.39701   3.48908   2.87190
C     1.16445   2.84766   3.03892
C     0.57615   2.15610   1.97867
H     3.30444   0.08745   2.26254
H     3.25604  -1.66751   1.91577
H     1.82506  -0.65757   1.60980
H     4.38509  -0.50700   0.04273
H    -1.60632   1.75411  -2.17596
H    -3.57214   1.87437  -3.72966
H    -3.38509   0.10961  -3.94822
H    -2.16472   1.22898  -4.62012
H    -0.21443  -1.46595   1.65234
H    -1.42222  -2.00768   3.74693
H    -3.81732  -1.35867   4.01457
H    -4.99013  -0.16589   2.16251
H    -3.78505   0.36809   0.06672
H     2.92003   2.77638  -0.43047
H     3.99085   3.96484   1.48623
H     2.85543   4.02084   3.70846
H     0.65931   2.87497   4.00711
H    -0.37439   1.63838   2.10352
