33
Generated by autodE on: 2022-06-02. E = -840.283931 Ha
C    -1.85162   3.88332  -0.04027
N    -1.18162   2.60074  -0.05425
C    -1.88662   1.45795   0.00570
O    -3.12592   1.43454   0.06899
C    -1.10382   0.18261  -0.00567
O     0.19936   0.13073   0.00196
N     1.03826   1.17916   0.05700
C     2.34580   0.73898  -0.00108
C     2.75589  -0.60407  -0.17899
C     4.11361  -0.91550  -0.21492
C     5.08775   0.08282  -0.08487
C     4.68481   1.41426   0.08252
C     3.33341   1.74452   0.12441
C    -1.72151  -1.13889   0.02712
C    -1.00398  -2.22140   0.58917
C    -1.54766  -3.50231   0.59968
C    -2.81513  -3.73508   0.05209
C    -3.53260  -2.67342  -0.50855
C    -2.99900  -1.38591  -0.52301
H    -2.54709   3.97754  -0.88949
H    -1.09841   4.67769  -0.10560
H    -2.43588   4.01919   0.88459
H    -0.15794   2.51932  -0.04477
H     2.01033  -1.39024  -0.29591
H     4.41680  -1.95650  -0.35299
H     6.14874  -0.17344  -0.11807
H     5.43329   2.20409   0.18312
H     3.01441   2.78018   0.25954
H    -0.02560  -2.04214   1.03668
H    -0.98425  -4.32398   1.04738
H    -3.24191  -4.74051   0.06470
H    -4.51761  -2.84991  -0.94650
H    -3.55673  -0.56866  -0.97333
