15
Generated by autodE on: 2022-06-02. E = -2770.224692 Ha
C    -2.19438   0.47888  -0.60298
C    -0.85130   1.13434  -0.76652
C    -0.91748   2.44527  -1.51320
C     0.31269   0.63762  -0.31024
C     1.69212   1.20853  -0.42197
Br    0.34972  -1.05661   0.64681
H    -2.14837  -0.47107  -0.05831
H    -2.64680   0.29424  -1.59268
H    -2.88234   1.15680  -0.06882
H    -1.58799   3.14369  -0.98337
H     0.05297   2.93732  -1.64542
H    -1.36063   2.28494  -2.51118
H     2.36232   0.51616  -0.95761
H     1.69124   2.16632  -0.95799
H     2.13185   1.37359   0.57542
