32
Generated by autodE on: 2022-10-06. E = -1104.280221 Ha
C     3.13018  -2.01116   1.88039
O     2.07055  -1.08224   1.61231
C     1.64951  -1.02240   0.35261
O     2.19383  -1.57849  -0.58024
C     0.48333  -0.05044   0.14781
C     1.04656   1.10166  -0.71884
O     1.20359   1.02451  -1.91874
O     1.35788   2.16827   0.00868
C     1.77538   3.33506  -0.71618
O    -0.02201   0.42813   1.37022
C    -1.45295   0.66562   1.26449
C    -2.14976  -0.09785   2.37599
C    -1.85162   0.24749  -0.15910
C    -1.98592   1.40615  -1.18350
O    -2.46672   1.08585  -2.30005
O    -1.58895   2.55557  -0.85126
C    -0.70709  -0.70600  -0.57450
C    -0.98721  -2.16074  -0.12648
O    -0.24144  -2.66503   0.75589
O    -1.96053  -2.72194  -0.68423
H     3.35149  -1.91854   2.94991
H     2.79940  -3.03417   1.64793
H     4.02155  -1.76888   1.28416
H     1.99658   4.09728   0.03959
H     2.67039   3.12008  -1.31687
H     0.95888   3.67202  -1.37081
H    -1.61129   1.74716   1.38637
H    -3.23337   0.09551   2.35115
H    -1.97770  -1.18011   2.27707
H    -1.76682   0.22169   3.35811
H    -2.79925  -0.30728  -0.17218
H    -0.57297  -0.70783  -1.66250
