40
Generated by autodE on: 2022-05-30. E = -1126.490617 Ha
C     4.34267   0.15158  -0.79563
O     2.95525   0.25669  -1.15593
C     2.17528   0.94510  -0.33893
O     2.56620   1.55581   0.63459
C     0.72040   0.97942  -0.80646
O     0.42685  -0.00880  -1.77696
C    -0.17448  -1.13558  -1.14435
C    -0.87403  -1.98977  -2.19617
C     0.92936  -1.94914  -0.54955
N     1.86364  -2.54052  -0.19986
C    -1.07786  -0.50896  -0.04509
C    -1.38792  -1.51274   1.07741
C    -2.17420  -1.10518   2.29555
O    -1.11045  -2.68835   0.90213
C    -2.49498   0.05709  -0.52568
C    -2.35655   0.90958  -1.77664
C    -1.80707   2.05905  -1.36792
C    -1.56647   1.87150   0.12013
O    -2.68043   1.05103   0.48781
C    -0.36801   0.84674   0.31330
C     0.24419   0.83936   1.72332
C     0.23743   2.10261   2.52538
O     0.68790  -0.20799   2.16324
H     4.43891  -0.35889   0.17312
H     4.81386  -0.44133  -1.58723
H     4.80066   1.14880  -0.73753
H     0.62704   1.95757  -1.30329
H    -1.65168  -1.41005  -2.70623
H    -0.14166  -2.32876  -2.94205
H    -1.32846  -2.86491  -1.71527
H    -2.01822  -0.07347   2.62034
H    -3.24393  -1.21270   2.04800
H    -1.94297  -1.81024   3.10535
H    -3.29514  -0.69050  -0.51512
H    -2.62840   0.60113  -2.78458
H    -1.50746   2.92337  -1.95916
H    -1.50959   2.77191   0.73638
H    -0.78299   2.25708   2.91750
H     0.93111   2.00704   3.37008
H     0.49090   2.97514   1.90869
