23
Generated by autodE on: 2022-05-30. E = -612.959764 Ha
C    -2.17591  -1.93610  -0.01552
C    -0.72327  -1.86649   0.34698
O    -0.06100  -2.88108   0.55248
C    -0.02394  -0.56844   0.46603
C    -0.23513   0.68163  -0.00948
C    -1.34127   1.28445  -0.79050
C    -0.93135   2.30310  -1.81840
O    -2.51211   0.98713  -0.59566
C     1.10704   1.42409   0.26770
C     2.16430   0.80708  -0.67555
C     2.36516  -0.42451  -0.19909
C     1.42364  -0.53351   1.01880
O     1.46220   0.81416   1.51279
H    -2.77501  -1.33002   0.67914
H    -2.50389  -2.98349   0.00369
H    -2.33536  -1.51096  -1.01860
H    -0.58063   3.21511  -1.30608
H    -0.08939   1.93068  -2.42403
H    -1.78633   2.55300  -2.45971
H     1.05707   2.51531   0.33393
H     2.57858   1.29857  -1.55471
H     2.99011  -1.23197  -0.57811
H     1.66409  -1.27377   1.78699
