17
Generated by autodE on: 2022-05-30. E = -513.424578 Ha
C     3.46565  -0.00919   0.14005
O     2.03531  -0.04878   0.09844
C     1.42769   0.98952  -0.50855
O     2.03490   1.92930  -1.00992
C    -0.01167   0.90006  -0.51551
O    -0.56898  -0.14396   0.05247
C    -1.84755  -0.40096   0.16276
C    -2.86154   0.52859  -0.37575
C    -2.13983  -1.61236   0.82317
N    -2.42140  -2.60934   1.36411
H     3.81573   0.87599   0.69202
H     3.88616   0.00951  -0.87646
H     3.77876  -0.92282   0.65924
H    -0.62351   1.67722  -0.96996
H    -2.72203   0.66006  -1.46557
H    -2.74723   1.52739   0.08655
H    -3.87372   0.15318  -0.18381
