17
Generated by autodE on: 2022-07-26. E = -513.412203 Ha
C     2.87885   1.74647   1.08162
O     1.53385   1.97250   0.64954
C     0.85994   0.89066   0.19981
O     1.34056  -0.23938   0.17721
C    -0.42906   1.26293  -0.30911
O    -1.28509   0.38961  -0.80601
C    -1.48150  -0.89446  -0.71452
C    -2.52551  -1.47004  -1.60832
C    -0.86131  -1.70549   0.26400
N    -0.52238  -2.46239   1.08688
H     2.90721   1.02094   1.90851
H     3.25578   2.71828   1.42196
H     3.49915   1.37266   0.25285
H    -0.69196   2.29323  -0.53998
H    -3.10552  -0.65482  -2.06270
H    -2.06260  -2.06306  -2.41676
H    -3.19865  -2.13882  -1.04966
