26
Generated by autodE on: 2022-07-27. E = -722.768582 Ha
C    -2.95787   0.32713  -2.60841
O    -1.89972  -0.11375  -1.73518
C    -1.68015   0.61522  -0.65074
O    -2.28069   1.62366  -0.35359
C    -0.58645   0.02236   0.20348
C    -1.08567  -0.99281   1.16434
C    -0.17537  -1.77771   2.05372
O    -2.30211  -1.17514   1.15589
N     0.66042   0.42421   0.03958
C     0.94785   1.33991  -1.10411
N     1.60268   0.11361   0.91543
C     2.88274  -0.07489   0.46034
C     3.88448  -0.16866   1.58381
O     3.20340  -0.23799  -0.72102
H    -2.74134   1.33693  -2.98420
H    -2.98342  -0.39246  -3.43391
H    -3.91472   0.32853  -2.06793
H     0.66445  -2.20127   1.48375
H     0.27011  -1.11799   2.81297
H    -0.76322  -2.57031   2.53557
H     1.90074   1.84076  -0.92695
H     0.14614   2.08472  -1.15173
H     0.98556   0.75552  -2.02973
H     4.90298  -0.10315   1.18011
H     3.71669   0.62052   2.33112
H     3.76633  -1.13798   2.09585
