26
Generated by autodE on: 2022-06-17. E = -722.771761 Ha
C    -2.38809   2.20325  -0.50924
O    -1.58046   1.04579  -0.78220
C    -0.95179   0.50204   0.25024
O    -1.05135   0.87834   1.39911
C    -0.18588  -0.72105  -0.15665
C    -0.86498  -1.72179  -1.04562
C    -2.36765  -1.77687  -1.00990
O    -0.20910  -2.45126  -1.77210
N     1.01208  -0.94937   0.35834
C     1.66701  -2.27408   0.25160
N     1.75505  -0.09456   1.05803
C     1.74442   1.22825   0.70281
C     2.53912   2.10180   1.63241
O     1.17280   1.69817  -0.29047
H    -2.81440   2.50469  -1.47223
H    -1.76070   3.00624  -0.09765
H    -3.18691   1.95204   0.20261
H    -2.77709  -1.02025  -1.69728
H    -2.76481  -1.56825  -0.00562
H    -2.68804  -2.77010  -1.35111
H     2.23772  -2.31122  -0.68437
H     2.34666  -2.33940   1.10561
H     0.92923  -3.07996   0.27547
H     3.01283   2.91589   1.06607
H     3.28724   1.53438   2.19972
H     1.83008   2.55742   2.34573
