24
Generated by autodE on: 2022-06-19. E = -705.349420 Ha
C    -4.53240   0.12523   0.13490
C    -3.26283   0.91241   0.26767
O    -3.21757   2.11790   0.51426
C    -2.01363   0.18886   0.08799
N    -0.79601   0.71347   0.16658
C     0.17063  -0.22573  -0.05016
C     1.59993   0.02271  -0.03422
C     2.11990   1.31437   0.19839
C     3.49631   1.53218   0.21152
C     4.38494   0.47318  -0.00687
C     3.87981  -0.81021  -0.23954
C     2.50448  -1.03913  -0.25416
C    -0.52773  -1.45568  -0.28750
O    -0.19570  -2.60233  -0.53348
O    -1.90405  -1.11645  -0.18412
H    -5.39154   0.78176   0.32051
H    -4.53714  -0.71473   0.84820
H    -4.60321  -0.30854  -0.87603
H    -0.65251   1.70491   0.36738
H     1.45038   2.16011   0.36859
H     3.87810   2.53950   0.39319
H     5.46298   0.64838   0.00384
H     4.56382  -1.64458  -0.41175
H     2.11759  -2.04141  -0.43510
