12
Generated by autodE on: 2022-06-19. E = -381.636102 Ha
O    -1.03076   2.45666  -0.11435
C    -0.55636   1.32652  -0.06232
C     0.91045   1.10975  -0.03874
C     1.42971  -0.12902   0.01967
C     0.55637  -1.32653   0.06215
O     1.03075  -2.45666   0.11443
C    -0.91046  -1.10975   0.03876
C    -1.42971   0.12903  -0.01965
H     1.53382   2.00638  -0.06990
H     2.50632  -0.31353   0.03879
H    -1.53382  -2.00637   0.07002
H    -2.50633   0.31354  -0.03867
