36
Generated by autodE on: 2022-06-19. E = -1086.980136 Ha. Imaginary frequency = -417.8 cm-1
C     3.82421  -1.68081  -0.20301
C     2.52818  -1.87613   0.51089
O     2.33233  -2.68769   1.39924
C     1.37314  -1.00573   0.11554
N     0.11095  -1.56254   0.07540
C    -0.70160  -0.71171  -0.59084
C    -2.14839  -0.78121  -0.65811
C    -2.86173   0.15216  -1.43957
C    -4.25506   0.11639  -1.46911
C    -4.95362  -0.84262  -0.72989
C    -4.25148  -1.76995   0.05046
C    -2.86070  -1.74002   0.09280
C     0.18928   0.11825  -1.41513
O    -0.01262   0.91577  -2.30129
O     1.47706  -0.21484  -1.00748
C    -0.13036   0.94220   1.17346
C    -0.21685   2.22560   0.50606
O    -1.29537   2.75263   0.19926
C     1.06442   2.91295   0.18820
C     2.25171   2.43842   0.60869
C     2.34866   1.18868   1.39383
O     3.41101   0.83386   1.89600
C     1.11356   0.35582   1.52217
H     4.58688  -2.34252   0.22581
H     4.14429  -0.62988  -0.13058
H     3.68455  -1.90178  -1.27429
H    -0.18552  -2.21665   0.79959
H    -2.31889   0.90022  -2.01386
H    -4.79902   0.84405  -2.07510
H    -6.04523  -0.86812  -0.75818
H    -4.79308  -2.51860   0.63236
H    -2.33091  -2.46351   0.71540
H    -1.05995   0.54991   1.58444
H     0.98317   3.83999  -0.38478
H     3.19220   2.95684   0.40659
H     1.14423  -0.33378   2.37061
