53
Generated by autodE on: 2022-06-24. E = -1434.139276 Ha
C     3.93684   1.28488   2.42856
O     3.84417   0.21200   1.47386
C     2.83211   0.15289   0.60481
C     2.48778  -1.06577   0.08277
O     3.24003  -2.14254   0.40362
C     2.57522  -3.29691   0.94334
C     1.39716  -1.21165  -0.89302
O     1.28655  -2.24784  -1.53685
C     0.34648  -0.10540  -1.01984
C    -0.19562  -0.13996  -2.45020
C    -0.85919  -0.37842   0.02385
C    -1.79829  -1.47821  -0.38022
C    -2.91487  -1.19294  -1.18224
C    -3.75547  -2.21746  -1.62016
C    -3.48603  -3.54475  -1.27328
C    -2.36822  -3.83815  -0.48833
C    -1.52704  -2.81425  -0.04516
C    -0.18242  -0.49886   1.41169
O     0.00886  -1.44137   2.13460
O     0.22835   0.75030   1.72081
C    -0.20449   1.60588   0.59376
C    -0.25792   3.04627   1.11070
C    -1.06919   4.05633   0.35330
O     0.38773   3.33080   2.09857
N    -1.41593   0.99155   0.12859
C    -2.56491   1.14155   1.03342
C     0.82565   1.32961  -0.56610
C     0.75970   2.38893  -1.67058
C     2.22306   1.39072   0.06240
O     2.81089   2.45477   0.15766
H     4.47398   0.86503   3.28902
H     4.50007   2.12960   2.01252
H     2.93883   1.61911   2.74485
H     3.36817  -4.01829   1.17750
H     2.03614  -3.02719   1.86337
H     1.87940  -3.73792   0.21737
H     0.59799   0.13552  -3.15696
H    -1.03667   0.54802  -2.57780
H    -0.52779  -1.15335  -2.69687
H    -3.12470  -0.16439  -1.47454
H    -4.62210  -1.97601  -2.23975
H    -4.14283  -4.34717  -1.61723
H    -2.14352  -4.87242  -0.21794
H    -0.65814  -3.05832   0.56219
H    -0.37822   4.80527  -0.06502
H    -1.72479   4.57850   1.06679
H    -1.66327   3.62115  -0.45661
H    -2.86783   2.19584   1.05935
H    -2.35682   0.80983   2.06593
H    -3.41123   0.56269   0.64875
H     1.41096   2.09576  -2.50412
H     1.12070   3.35169  -1.29226
H    -0.25911   2.51517  -2.04889
