27
Generated by autodE on: 2022-06-24. E = -744.671850 Ha
C     4.40627   0.58798   0.42165
C     3.35441  -0.40630   0.00715
O     3.62928  -1.54084  -0.38847
C     1.97901   0.05434   0.10626
O     1.68971   1.27375   0.59524
C     0.29536   1.46544   0.58401
O    -0.19362   2.51210   0.97897
C    -0.23701   0.24485   0.06292
C    -1.65239  -0.06885  -0.09851
C    -2.17815  -1.35904   0.12283
C    -3.54504  -1.60022  -0.01934
C    -4.41548  -0.56370  -0.37041
C    -3.90762   0.72387  -0.57422
C    -2.54236   0.97200  -0.44068
N     0.83489  -0.56461  -0.22292
C     0.76308  -1.87301  -0.87946
H     4.24605   0.90884   1.46324
H     4.35088   1.49036  -0.20831
H     5.39539   0.12381   0.32169
H    -1.52491  -2.17399   0.43416
H    -3.93351  -2.60583   0.15771
H    -5.48525  -0.75693  -0.47812
H    -4.57945   1.54160  -0.84543
H    -2.15231   1.97687  -0.60528
H    -0.14082  -1.90224  -1.49594
H     1.65262  -2.00354  -1.49978
H     0.72708  -2.66995  -0.12503
