26
Generated by autodE on: 2022-06-24. E = -689.460880 Ha
C    -3.04020   1.51560   0.00045
O    -1.65421   1.76704   0.25499
C    -0.71095   0.84030   0.08967
C    -0.83164  -0.44647  -0.34273
O    -2.02001  -0.99555  -0.73246
C    -2.59128  -1.94615   0.17250
C     0.36551  -1.30299  -0.48354
O     0.24288  -2.44661  -0.91897
C     1.70909  -0.76929  -0.10666
C     2.88239  -1.68818  -0.23644
C     1.84209   0.51063   0.32133
C     3.17044   1.09283   0.69418
C     0.64832   1.38695   0.43847
O     0.73745   2.54502   0.82241
H    -3.55039   2.46090   0.22493
H    -3.42579   0.72503   0.65975
H    -3.20524   1.24350  -1.05011
H    -3.52851  -2.29032  -0.28460
H    -2.81084  -1.47341   1.14428
H    -1.92237  -2.80602   0.32563
H     3.39377  -1.80536   0.73335
H     3.62753  -1.27239  -0.93487
H     2.57401  -2.67660  -0.59635
H     3.07276   2.14147   0.99862
H     3.62589   0.52524   1.52251
H     3.87396   1.03316  -0.15238
