53
Generated by autodE on: 2022-06-24. E = -1434.111567 Ha. Imaginary frequency = -321.5 cm-1
C     3.76973   0.81429   2.57076
O     4.11422   0.67416   1.18565
C     3.03221   0.42835   0.38484
C     2.66487  -0.85414   0.08944
O     3.40396  -1.83691   0.60484
C     3.01668  -3.21883   0.61095
C     1.54114  -1.10180  -0.87280
O     1.41462  -2.22278  -1.38607
C     0.65465   0.00172  -1.19098
C    -0.22236  -0.21467  -2.38909
C    -1.21015  -0.43790   0.48298
C    -2.06482  -1.49818  -0.02937
C    -2.95311  -1.30434  -1.11323
C    -3.70936  -2.36441  -1.60763
C    -3.59878  -3.63887  -1.04373
C    -2.71720  -3.84851   0.02115
C    -1.95531  -2.79639   0.52241
C    -0.08524  -0.63893   1.40781
O     0.38892  -1.62599   1.93297
O     0.40012   0.60803   1.67695
C    -0.21180   1.52023   0.81495
C    -0.10921   2.92557   1.38302
C    -0.89544   4.06635   0.80634
O     0.67139   3.09533   2.30146
N    -1.42895   0.90938   0.45373
C    -2.63247   1.58059  -0.02588
C     0.90580   1.35096  -0.71778
C     0.54475   2.47427  -1.67965
C     2.26421   1.58403  -0.07298
O     2.68000   2.72440   0.11686
H     4.70527   0.99580   3.11662
H     3.08296   1.66162   2.72378
H     3.29383  -0.10558   2.94835
H     3.65332  -3.68613   1.37390
H     1.96168  -3.33402   0.88603
H     3.20306  -3.68355  -0.36520
H     0.34539   0.00896  -3.31109
H    -1.09932   0.44207  -2.38970
H    -0.55642  -1.25638  -2.45590
H    -3.04372  -0.33602  -1.59631
H    -4.38616  -2.19246  -2.44713
H    -4.19494  -4.46608  -1.43543
H    -2.62165  -4.84061   0.46750
H    -1.27482  -2.96908   1.35260
H    -0.27877   4.97264   0.88083
H    -1.78873   4.21783   1.43613
H    -1.22207   3.91252  -0.22621
H    -2.55853   1.86121  -1.08505
H    -2.81808   2.46981   0.58149
H    -3.47858   0.90117   0.11616
H     1.08686   2.32699  -2.62651
H     0.84255   3.44669  -1.27253
H    -0.52600   2.49774  -1.91029
