61
Generated by autodE on: 2022-06-27. E = -1497.740463 Ha
C     0.15642  -1.55256   2.95299
O     0.46584  -0.38193   2.20057
C    -0.26119  -0.02772   1.05899
C    -1.75555   0.07876   1.39504
O    -2.08565   0.30831   2.54774
C    -2.76424  -0.07572   0.31867
C    -4.18469   0.24394   0.66079
C    -2.40329  -0.43558  -0.94500
C    -3.39824  -0.49946  -2.06059
C    -0.98455  -0.66500  -1.28797
O    -0.60666  -0.67699  -2.44817
C     0.00240  -0.97792  -0.13978
O    -0.20262  -2.29041   0.29892
C    -0.45821  -3.32183  -0.65587
C     1.44917  -0.52596  -0.55265
C     1.89407  -0.90374  -1.99073
C     2.35924   0.20828  -2.88469
O     1.99839  -2.07543  -2.30691
C     2.58886  -1.04095   0.33603
C     3.57690  -0.14064   0.75868
C     4.66726  -0.57942   1.51419
C     4.79403  -1.93057   1.84721
C     3.83033  -2.83906   1.39989
C     2.74164  -2.40265   0.64021
O     1.32239   0.89053  -0.46821
C     0.36517   1.32790   0.52510
C     1.09145   2.10418   1.62204
C    -0.66300   2.24155  -0.15030
C    -1.62333   2.91441   0.62485
C    -2.61177   3.69204   0.01976
C    -2.64880   3.82883  -1.37184
C    -1.67462   3.19599  -2.14594
C    -0.68756   2.41286  -1.53847
H    -0.86594  -1.91342   2.78672
H     0.86101  -2.36028   2.70492
H     0.27109  -1.28874   4.01537
H    -4.53104   1.10790   0.07013
H    -4.84612  -0.60017   0.40824
H    -4.29241   0.47804   1.72579
H    -2.94376  -0.88886  -2.97891
H    -4.25681  -1.13032  -1.78367
H    -3.79645   0.50814  -2.26896
H    -0.45300  -4.26097  -0.08727
H    -1.44889  -3.20080  -1.12473
H     0.31733  -3.35569  -1.43156
H     3.10435   0.82559  -2.35985
H     1.51991   0.86529  -3.15035
H     2.79572  -0.22240  -3.79493
H     3.48679   0.91251   0.49704
H     5.42166   0.14056   1.84044
H     5.64357  -2.27551   2.44134
H     3.92487  -3.90083   1.63994
H     2.01535  -3.13011   0.28877
H     1.52189   3.01408   1.17938
H     1.89013   1.50700   2.06969
H     0.39254   2.39641   2.41666
H    -1.62048   2.81715   1.71032
H    -3.35805   4.19245   0.64105
H    -3.42602   4.43229  -1.84624
H    -1.67926   3.30604  -3.23288
H     0.06231   1.92082  -2.15115
