35
Generated by autodE on: 2022-07-27. E = -808.220855 Ha
C     1.41974  -2.77354  -2.34193
C     0.36623  -1.78994  -1.87185
O    -0.65498  -1.61456  -2.58042
C     0.56223  -1.09417  -0.63882
O    -0.42369  -0.15459  -0.45425
C    -0.89142   0.44600   0.58865
C    -0.42982   0.09993   1.95107
C    -1.92982   1.41982   0.29230
C    -2.44382   2.26880   1.29670
C    -3.43284   3.20221   0.99115
C    -3.93195   3.30148  -0.31162
C    -3.43231   2.46053  -1.31605
C    -2.43813   1.53411  -1.02475
C     1.75324  -1.10368   0.21611
C     2.38052   0.10612   0.58904
C     3.54369   0.10290   1.35961
C     4.11765  -1.10525   1.77003
C     3.51028  -2.31164   1.40458
C     2.33993  -2.31252   0.64476
H     2.44048  -2.49573  -2.04668
H     1.21381  -3.77713  -1.93393
H     1.35560  -2.84035  -3.43758
H    -1.18167   0.37465   2.69891
H    -0.23202  -0.98142   2.00615
H     0.51708   0.60852   2.20364
H    -2.06324   2.20852   2.31656
H    -3.81671   3.85719   1.77622
H    -4.70899   4.03245  -0.54609
H    -3.82305   2.53215  -2.33350
H    -2.05132   0.87318  -1.80090
H     1.95825   1.05686   0.25528
H     4.01104   1.05218   1.63291
H     5.02906  -1.10632   2.37225
H     3.94346  -3.26176   1.72703
H     1.85870  -3.25904   0.39432
