35
Generated by autodE on: 2022-06-27. E = -808.222394 Ha
C     0.89718   2.51084  -1.91199
C     1.84523   1.58314  -1.16928
O     3.08158   1.74141  -1.28843
C     1.26672   0.57843  -0.33479
O    -0.11528   0.57918  -0.40176
C    -0.97938   0.29822   0.52579
C    -0.53082   0.07915   1.91384
C    -2.35944   0.28204   0.08190
C    -2.67360   0.50693  -1.28130
C    -3.99613   0.50731  -1.70872
C    -5.03383   0.26864  -0.79745
C    -4.73655   0.02914   0.54853
C    -3.41530   0.03435   0.98885
C     1.97691  -0.52506   0.29912
C     3.29716  -0.36156   0.78155
C     4.00113  -1.43631   1.32279
C     3.41779  -2.70612   1.40657
C     2.11427  -2.88604   0.93282
C     1.40338  -1.81663   0.38759
H     0.33062   3.14339  -1.20959
H     0.15847   1.95063  -2.50654
H     1.49054   3.15408  -2.57550
H    -1.33611   0.27691   2.62900
H     0.32924   0.73876   2.11687
H    -0.17199  -0.95422   2.06980
H    -1.86874   0.67540  -1.99670
H    -4.22365   0.68636  -2.76178
H    -6.07143   0.26311  -1.13851
H    -5.54108  -0.16292   1.26147
H    -3.20547  -0.15388   2.04157
H     3.76238   0.62049   0.72554
H     5.01740  -1.27742   1.69286
H     3.97127  -3.54369   1.83710
H     1.64404  -3.87144   0.98159
H     0.39830  -1.99466  -0.00093
