61
Generated by autodE on: 2022-06-27. E = -1497.684598 Ha. Imaginary frequency = -206.1 cm-1
C    -0.45136  -2.06130   3.44693
O     0.21344  -1.66142   2.24439
C    -0.50768  -1.31056   1.14760
C    -1.68620  -0.49056   1.23704
O    -2.08478  -0.00684   2.31964
C    -2.48082  -0.25895  -0.02085
C    -3.73517   0.54525   0.12368
C    -2.07182  -0.74603  -1.22307
C    -2.78920  -0.48808  -2.51401
C    -0.94509  -1.69259  -1.27961
O    -0.75200  -2.39756  -2.26741
C    -0.03304  -1.83274  -0.08640
O     0.68831  -3.00766  -0.07272
C    -0.05103  -4.16899   0.31331
C     1.49747  -0.47303  -0.70977
C     1.62975  -0.78384  -2.17292
C     2.50992  -1.94035  -2.54548
O     1.02093  -0.12887  -3.01049
C     2.76802  -0.55926   0.09266
C     3.57146   0.59828   0.11400
C     4.78964   0.60651   0.79197
C     5.23204  -0.54384   1.45334
C     4.44727  -1.69913   1.42229
C     3.22600  -1.71332   0.74268
O     0.77642   0.68038  -0.56918
C     0.31543   1.25316   0.52389
C     0.97480   1.18060   1.85222
C    -0.69441   2.25985   0.22892
C    -1.31594   2.99367   1.26175
C    -2.30474   3.93013   0.96257
C    -2.68320   4.15850  -0.36344
C    -2.06818   3.43997  -1.39824
C    -1.08898   2.49707  -1.10998
H    -1.34549  -2.66216   3.22069
H     0.26928  -2.68084   3.99859
H    -0.73942  -1.19519   4.05635
H    -3.68331   1.46929  -0.47229
H    -4.60356  -0.02395  -0.24541
H    -3.90469   0.81453   1.17182
H    -2.07290  -0.46778  -3.34836
H    -3.51947  -1.28646  -2.73438
H    -3.33220   0.46558  -2.48945
H     0.65025  -5.01249   0.26625
H    -0.88815  -4.35387  -0.37862
H    -0.43845  -4.07414   1.33950
H     2.28114  -2.81098  -1.91540
H     3.56605  -1.67672  -2.37505
H     2.35870  -2.18211  -3.60502
H     3.23233   1.49913  -0.40160
H     5.39665   1.51477   0.80080
H     6.18521  -0.53927   1.98702
H     4.78484  -2.60342   1.93419
H     2.61524  -2.61118   0.73144
H     1.66458   2.03696   1.95653
H     0.21561   1.26161   2.64073
H     1.53426   0.25911   2.01160
H    -1.03326   2.83202   2.30078
H    -2.78200   4.48630   1.77206
H    -3.45677   4.89471  -0.59283
H    -2.36084   3.61496  -2.43567
H    -0.61523   1.93348  -1.91211
