45
Generated by autodE on: 2022-06-04. E = -1068.128756 Ha
C    -1.46621   3.36112   3.92017
N    -0.97373   2.15667   3.28248
C    -1.06829   1.97061   1.95664
O    -1.53750   2.82272   1.18938
C    -0.56863   0.65076   1.45982
N    -0.36729  -0.33339   2.31606
N     0.04689  -1.37663   1.54259
C     0.38573  -2.50703   2.18193
N     0.67358  -3.45255   2.79368
C     0.10678  -1.06610   0.17620
C    -0.27370   0.26655   0.10958
C    -0.43379   1.17504  -1.08033
C     0.83123   1.41489  -1.88259
O     0.85284   1.77035  -3.04459
O     1.93787   1.28818  -1.14205
C     3.18889   1.54030  -1.79622
C    -1.67399   0.85087  -1.94274
C    -1.98748  -0.62827  -2.16314
C    -0.94200  -1.45190  -2.91921
C     0.45270  -1.61100  -2.29762
C     0.57151  -2.10321  -0.83571
C     2.07159  -2.37726  -0.57333
C    -0.23984  -3.40920  -0.68825
H    -1.23580   3.31443   4.99107
H    -2.55604   3.46687   3.79442
H    -0.98842   4.25547   3.49161
H    -0.60987   1.39777   3.85001
H    -0.61519   2.17430  -0.65392
H     3.96313   1.39117  -1.03485
H     3.33427   0.83540  -2.62765
H     3.22455   2.57039  -2.17881
H    -1.55699   1.36620  -2.90813
H    -2.53781   1.31107  -1.43892
H    -2.93059  -0.68113  -2.73237
H    -2.20576  -1.10406  -1.19297
H    -0.80043  -1.01380  -3.92233
H    -1.36539  -2.45534  -3.08755
H     0.98836  -2.36127  -2.90034
H     1.04768  -0.70043  -2.42044
H     2.43204  -3.14937  -1.26950
H     2.66127  -1.46179  -0.73174
H     2.25897  -2.73565   0.44943
H    -1.32182  -3.22113  -0.73286
H     0.02629  -4.08850  -1.51196
H    -0.02325  -3.93792   0.24901
