13
Generated by autodE on: 2022-06-04. E = -449.162663 Ha
C    -1.40038   1.83390   1.48025
N    -2.15993   1.31767   0.35554
C    -1.74856   0.41494  -0.54044
O    -2.39569  -0.03752  -1.48112
C    -0.37002  -0.07679  -0.36793
N     0.66722  -0.60258  -0.39259
N     1.75778  -1.23920  -0.53687
C     2.71796  -1.03637   0.35581
N     3.64115  -0.95015   1.07047
H    -0.35425   1.50614   1.41349
H    -1.81773   1.47792   2.43425
H    -1.41602   2.93296   1.47324
H    -3.12163   1.63262   0.23476
