32
Generated by autodE on: 2022-06-04. E = -618.800985 Ha
C    -4.11002   1.20928  -1.64224
O    -2.89608   0.44152  -1.64705
C    -1.79004   1.06151  -1.22905
O    -1.76525   2.22344  -0.88017
C    -0.58858   0.12419  -1.22252
C    -0.40848  -0.50259   0.09112
C     0.19700  -0.91811   1.03181
C     1.31698  -1.23642   1.92865
C     1.23562  -2.66922   2.47784
C     1.36308  -0.23338   3.09650
C     2.58317  -1.08864   1.02254
C     2.66217   0.15580   0.11393
C     2.02125   0.07579  -1.30197
C     0.72620   0.87246  -1.55812
H    -4.01593   2.08093  -2.30577
H    -4.89431   0.53700  -2.00866
H    -4.34538   1.54885  -0.62319
H    -0.78164  -0.65891  -1.97290
H     0.36222  -2.78884   3.13756
H     1.15572  -3.40258   1.66094
H     2.14077  -2.89992   3.06160
H     1.46723   0.80025   2.73440
H     0.44382  -0.29258   3.69919
H     2.22006  -0.46095   3.74997
H     3.45567  -1.10059   1.69753
H     2.66261  -1.99252   0.39558
H     2.26868   1.03675   0.64856
H     3.73439   0.36347  -0.02907
H     2.76351   0.46586  -2.01583
H     1.86964  -0.97955  -1.58744
H     0.74509   1.80542  -0.97340
H     0.67566   1.16386  -2.61971
