23
Generated by autodE on: 2022-06-22. E = -351.521378 Ha
C     3.67156   0.60192   0.67709
C     2.43016   0.10823   0.87969
C     2.12172  -0.77466   2.06191
C     1.35540   0.42841  -0.05768
C     0.07196  -0.00236   0.03268
C    -0.95616   0.34686  -0.92642
C    -2.25714  -0.03895  -0.90836
C    -2.86819  -0.92170   0.14269
C    -3.20668   0.41080  -1.98261
H     3.89279   1.24275  -0.18204
H     4.49389   0.37847   1.36248
H     1.33462  -0.33138   2.69435
H     1.74552  -1.75858   1.73571
H     3.01432  -0.93480   2.68295
H     1.63144   1.07431  -0.89992
H    -0.21049  -0.64687   0.86948
H    -0.63333   0.99407  -1.75098
H    -2.16178  -1.24073   0.91973
H    -3.70911  -0.40239   0.63551
H    -3.29888  -1.82621  -0.32221
H    -4.05640   0.96634  -1.54646
H    -2.71677   1.05371  -2.72855
H    -3.64688  -0.45779  -2.50477
