24
Generated by autodE on: 2022-06-22. E = -721.566340 Ha
C    -4.43792   1.34639  -0.85981
O    -3.01450   1.27423  -0.71558
C    -2.51768   0.11748  -0.24133
O    -3.21987  -0.83287   0.06025
C    -1.05966   0.23542  -0.17200
N    -0.23809  -0.71103   0.24559
C    -0.79625  -2.01495   0.68844
C     1.13733  -0.56304   0.29769
C     1.93601  -1.63661   0.75125
N     2.63225  -2.49974   1.11887
C     1.82088   0.66352  -0.09889
O     1.29997   1.68971  -0.51706
O     3.15269   0.54255   0.05257
C     3.94588   1.68177  -0.30010
H    -4.65137   2.34741  -1.25195
H    -4.79449   0.57875  -1.56240
H    -4.93254   1.20560   0.11261
H    -0.61365   1.17267  -0.48804
H    -1.34052  -2.46743  -0.14626
H     0.01615  -2.66970   1.00623
H    -1.48574  -1.83984   1.51975
H     3.81034   1.93594  -1.36158
H     3.67655   2.54950   0.31979
H     4.98620   1.39215  -0.11162
