47
Generated by autodE on: 2022-06-22. E = -1073.062103 Ha. Imaginary frequency = -331.3 cm-1
C    -0.46780  -3.37538  -0.52667
C     0.07423  -2.48594  -1.38977
C     1.03091  -2.91510  -2.47428
C    -0.21055  -1.05933  -1.33090
C    -1.25317  -0.47934  -0.55602
C    -1.78930   0.81747  -1.00089
C    -3.03936   1.28652  -0.80608
C    -3.43619   2.64488  -1.31408
C    -4.11908   0.55088  -0.06443
C    -0.46331  -0.32336   1.37639
C    -0.58250   1.07951   1.86965
O     0.32581   1.77279   2.28336
O    -1.86829   1.43882   1.93507
C    -2.15236   2.76400   2.39392
N     0.77692  -0.91999   1.29292
C     1.03512  -2.10356   2.13334
C     1.64252  -0.63808   0.26176
C     2.72306  -1.54498   0.06909
N     3.59412  -2.30144  -0.09674
C     1.74262   0.63369  -0.47126
O     1.06674   1.63473  -0.32304
O     2.71607   0.54887  -1.40623
C     2.87552   1.68271  -2.26442
H    -1.17615  -3.07822   0.24939
H    -0.20290  -4.43479  -0.57549
H     1.93621  -2.28906  -2.47225
H     1.32998  -3.96695  -2.36324
H     0.56366  -2.79005  -3.46633
H     0.21580  -0.45345  -2.13372
H    -1.99252  -1.18775  -0.17793
H    -1.08511   1.45132  -1.54613
H    -4.32730   2.58365  -1.96376
H    -2.62540   3.12957  -1.87786
H    -3.71375   3.30433  -0.47173
H    -3.79059  -0.41061   0.35056
H    -4.98207   0.36369  -0.72777
H    -4.49730   1.16883   0.76793
H    -1.16786  -0.94428   1.93767
H    -1.69777   3.50664   1.72212
H    -1.77038   2.91329   3.41436
H    -3.24389   2.86255   2.38153
H     1.44877  -2.93250   1.55146
H     0.09250  -2.42256   2.58987
H     1.74118  -1.83266   2.93428
H     3.71504   1.44197  -2.92714
H     3.10222   2.58637  -1.68032
H     1.96410   1.85075  -2.85739
