10
Generated by autodE on: 2022-05-29. E = -453.905089 Ha
C     3.27029   0.28229  -0.62493
C     1.85007   0.16094  -0.35475
C     0.66416   0.05941  -0.12930
C    -0.76049  -0.06552   0.14539
F    -1.33914   1.13247   0.35565
F    -1.42032  -0.64576  -0.87588
F    -0.99746  -0.81312   1.24033
H     3.54965   1.33932  -0.75927
H     3.53778  -0.26690  -1.54163
H     3.85908  -0.12896   0.21032
