14
Generated by autodE on: 2022-06-16. E = -270.683219 Ha
C    -1.86931  -1.02199  -0.99095
C    -0.77187  -0.31671  -0.25855
C    -1.19103   0.51627   0.91866
C     0.52058  -0.44282  -0.66711
C     1.67603   0.19296  -0.05176
O     1.66894   0.96234   0.90658
H    -2.61609  -0.28838  -1.34262
H    -2.40854  -1.69550  -0.30176
H    -1.50286  -1.60231  -1.84892
H    -0.97328   1.58167   0.73699
H    -2.26627   0.40785   1.11822
H    -0.62512   0.24328   1.82232
H     0.74119  -1.07389  -1.53302
H     2.64908  -0.07063  -0.53311
