13
Generated by autodE on: 2022-06-16. E = -340.827207 Ha
C    -3.04121   0.31037   0.10801
N    -1.90434   0.80602  -0.67423
N    -0.84452   0.21904  -0.48324
C     0.20138  -0.36087  -0.42221
C     1.46808  -0.38282   0.29560
C     2.54470   0.49286  -0.28452
O     1.62661  -1.11222   1.26550
H    -3.11952  -0.78753   0.04950
H    -2.93986   0.59801   1.16738
H    -3.95543   0.76306  -0.29198
H     3.43994   0.44125   0.34977
H     2.18903   1.53290  -0.36156
H     2.78802   0.15313  -1.30435
