27
Generated by autodE on: 2022-06-16. E = -611.503112 Ha. Imaginary frequency = -320.9 cm-1
C     3.24768   1.31827  -0.69659
C     2.48609   0.10351  -0.23884
O     3.01079  -0.98233  -0.04259
C     1.03059   0.28196  -0.09994
N     0.35623   1.20996   0.33825
N    -0.75469   1.52822   0.77093
C    -1.45477   2.65591   0.17599
C    -1.58981  -0.60750  -0.35978
C    -2.47081  -0.44394   0.76639
O    -3.58851   0.08683   0.70376
C    -0.38376  -1.31686  -0.38438
C     0.04809  -2.16536   0.79798
C     0.11781  -1.79669  -1.73115
H     2.84714   1.66563  -1.66233
H     3.11357   2.13765   0.02756
H     4.31167   1.06709  -0.79712
H    -1.16464   2.82041  -0.87275
H    -1.26604   3.57109   0.76074
H    -2.52861   2.42888   0.23988
H    -1.95654  -0.17615  -1.29813
H    -2.11727  -0.85816   1.73686
H     1.12236  -2.38220   0.74393
H    -0.15786  -1.68562   1.76399
H    -0.49110  -3.12812   0.77285
H    -0.11842  -1.07900  -2.52989
H    -0.37442  -2.75445  -1.97616
H     1.20098  -1.98030  -1.72265
