12
Generated by autodE on: 2022-07-27. E = -302.764667 Ha
C     0.01852   2.19453  -1.30528
N    -0.13751   1.00735  -0.83294
N     0.39323   0.52428   0.30205
C     0.00486  -0.76864   0.47625
C     0.53958  -1.42658   1.71923
O    -0.73617  -1.39284  -0.31259
H     0.63635   2.91005  -0.75857
H    -0.47717   2.44554  -2.24343
H    -0.72359   0.31747  -1.34479
H    -0.30389  -1.77683   2.33565
H     1.12380  -2.31673   1.43537
H     1.16828  -0.74617   2.30743
