26
Generated by autodE on: 2022-06-18. E = -689.457149 Ha
C    -2.25832   2.38999  -0.98708
O    -2.06892   1.17165  -0.25403
C    -0.87121   0.60276  -0.06951
C    -0.82990  -0.72182   0.24320
O    -1.97315  -1.45551   0.35853
C    -2.40041  -2.09277  -0.85138
C     0.44932  -1.42987   0.41832
O     0.45161  -2.64465   0.61133
C     1.72269  -0.65309   0.34328
C     3.00425  -1.39799   0.54429
C     1.69477   0.68008   0.09239
C     2.94772   1.49697   0.00795
C     0.39782   1.39943  -0.05628
O     0.35957   2.61984  -0.14969
H    -3.31346   2.38133  -1.29105
H    -1.61981   2.42197  -1.88088
H    -2.06067   3.26654  -0.35722
H    -3.32454  -2.63707  -0.61522
H    -1.64013  -2.80394  -1.21195
H    -2.60563  -1.34596  -1.63562
H     3.56383  -0.98563   1.40030
H     2.81834  -2.46355   0.72331
H     3.65867  -1.29402  -0.33697
H     3.62011   1.09774  -0.76866
H     3.50497   1.45476   0.95870
H     2.72620   2.54605  -0.21993
