37
Generated by autodE on: 2022-06-17. E = -821.936838 Ha
C    -0.20787  -2.80458  -1.51721
N     0.18940  -1.48982  -1.04557
C     1.49107  -1.12865  -0.98373
C     1.96321   0.05232  -0.48351
C     3.41528   0.25850  -0.49610
N     3.87759   1.39091   0.09700
O     4.21845  -0.54624  -1.01474
C     1.00785   1.05045   0.11983
C    -0.41496   0.85441  -0.42254
C    -0.84228  -0.62028  -0.51982
C    -1.38107  -0.96354   0.91182
C    -0.35549  -1.64850   1.80626
C    -2.68171  -1.75841   0.85644
O    -1.67034   0.34312   1.49697
C    -1.49894   1.38539   0.54355
C    -1.18960   2.69057   1.26889
C    -2.77443   1.56706  -0.20774
N    -3.77698   1.70274  -0.77649
H    -1.08937  -2.72029  -2.17202
H     0.61336  -3.25402  -2.09111
H    -0.46386  -3.48411  -0.68644
H     2.19786  -1.85438  -1.39108
H     4.87969   1.53986   0.13431
H     3.27511   2.03740   0.58929
H     1.00984   0.96641   1.21995
H     1.31794   2.08180  -0.10798
H    -0.49723   1.33497  -1.40683
H    -1.69386  -0.68325  -1.21486
H    -0.16217  -2.67365   1.46002
H    -0.74962  -1.70372   2.83232
H     0.59804  -1.10510   1.83082
H    -3.07870  -1.91213   1.87151
H    -3.43900  -1.22751   0.26052
H    -2.51000  -2.74361   0.39792
H    -2.03129   2.96282   1.92148
H    -1.02632   3.49979   0.54297
H    -0.29129   2.56955   1.88657
