20
Generated by autodE on: 2022-06-17. E = -457.715323 Ha
C    -3.08350  -0.65955   0.37653
N    -1.81591   0.03698   0.23051
C    -1.80977   1.41609  -0.01376
C    -0.68263   2.10433  -0.25457
C     0.68366   1.46468  -0.28646
C     0.57412  -0.03276  -0.04917
C     1.76420  -0.89884  -0.05296
N     2.95114  -0.28257  -0.28185
O     1.71849  -2.13105   0.13950
C    -0.62866  -0.63005   0.18312
H    -3.64856  -0.67560  -0.57105
H    -3.70614  -0.17120   1.14176
H    -2.89511  -1.69436   0.68910
H    -2.79242   1.89081   0.00902
H    -0.75816   3.17990  -0.43018
H     1.17925   1.67706  -1.25588
H     1.34400   1.93800   0.46948
H     3.03086   0.71261  -0.44740
H     3.79450  -0.84559  -0.29701
H    -0.67830  -1.70706   0.35050
