37
Generated by autodE on: 2022-06-17. E = -821.828613 Ha. Imaginary frequency = -337.7 cm-1
C     0.56955  -3.09897  -1.18266
N     0.55019  -1.64667  -1.08263
C     1.67710  -0.98042  -0.71464
C     1.80376   0.37873  -0.73410
C     3.07810   0.95153  -0.28175
N     3.22187   2.29391  -0.42789
O     4.00281   0.26896   0.20749
C     0.67861   1.23610  -1.27823
C    -0.61761   0.45794  -1.28128
C    -0.63725  -0.91743  -1.29046
C    -1.95723  -1.29128   0.72467
C    -1.68189  -2.67557   1.20530
C    -3.29219  -0.99169   0.12679
O    -1.26722  -0.38110   1.37811
C    -1.17176   0.94712   1.13573
C    -0.01926   1.58796   1.84836
C    -2.30177   1.73134   0.83036
N    -3.16812   2.47336   0.55426
H     0.85290  -3.56564  -0.22683
H     1.28347  -3.42781  -1.95490
H    -0.42727  -3.45801  -1.46282
H     2.51435  -1.60416  -0.39473
H     2.49970   2.88177  -0.82335
H     4.08245   2.72703  -0.11204
H     0.90967   1.57454  -2.31162
H     0.56385   2.16508  -0.69657
H    -1.51634   0.98025  -1.60891
H    -1.45911  -1.48684  -1.71965
H    -2.35515  -2.92345   2.04853
H    -1.87998  -3.40620   0.40988
H    -0.64459  -2.77471   1.55153
H    -4.02495  -0.81532   0.93742
H    -3.29714  -0.11298  -0.52617
H    -3.63289  -1.86289  -0.44881
H     0.08733   2.63383   1.52888
H    -0.15186   1.58371   2.94579
H     0.91710   1.05908   1.61228
