23
Generated by autodE on: 2022-05-25. E = -924.032482 Ha
C     3.23309  -1.51501   0.58847
C     2.38093  -0.58642  -0.21369
O     2.79709   0.13075  -1.10261
C     0.89735  -0.56698   0.08812
N     0.32280  -1.60874   0.58468
C    -1.11544  -1.28461   0.64527
C    -1.86462  -2.24597  -0.18055
N    -2.45002  -2.98570  -0.85219
C    -1.57014  -1.35216   2.04428
N    -1.91958  -1.37782   3.14803
C    -1.27979   0.14899   0.09942
C    -2.61253   0.79311   0.03308
C    -0.02714   0.54970  -0.21396
C     0.38282   1.90011  -0.73372
F    -0.58863   2.81387  -0.56480
F     1.46496   2.35948  -0.08278
F     0.67364   1.87677  -2.04333
H     3.16143  -1.24922   1.65606
H     4.27401  -1.44914   0.24860
H     2.86200  -2.54669   0.49097
H    -3.34927   0.08753  -0.38280
H    -2.95082   1.04627   1.05272
H    -2.60243   1.70478  -0.57156
