13
Generated by autodE on: 2022-05-25. E = -470.017443 Ha
C     3.43619   0.63135  -0.28549
C     2.51549  -0.41869   0.24127
O     2.83065  -1.47506   0.75945
C     1.09059  -0.13293   0.11322
N    -0.06331   0.01952   0.00870
C    -1.37636   0.19800  -0.11013
C    -2.25901  -0.80429   0.36251
N    -2.99717  -1.62135   0.74596
C    -1.86580   1.38495  -0.70928
N    -2.28322   2.35704  -1.19945
H     3.26165   1.57933   0.24987
H     4.47426   0.30106  -0.14889
H     3.22609   0.81028  -1.35277
