23
Generated by autodE on: 2022-05-25. E = -923.909547 Ha. Imaginary frequency = -356.1 cm-1
C     3.25745  -0.75402   0.91674
C     2.34660  -0.81515  -0.26322
O     2.66617  -0.85308  -1.43053
C     0.88476  -0.80653   0.06252
N     0.04123  -1.59218   0.39738
C    -1.26252  -1.73600   0.65428
C    -2.13756  -2.14532  -0.38876
N    -2.87941  -2.44458  -1.23541
C    -1.71281  -1.76200   2.00197
N    -2.11108  -1.74415   3.09644
C    -1.49597   0.87061   0.18816
C    -2.90731   0.95795   0.52366
C    -0.31343   1.04462  -0.13750
C     0.67684   1.98973  -0.67422
F     0.20288   3.24636  -0.71162
F     1.80806   2.02230   0.06535
F     1.04735   1.66793  -1.92784
H     2.98646   0.10666   1.54819
H     4.29723  -0.67391   0.57379
H     3.12106  -1.66420   1.52436
H    -3.51117   0.30617  -0.12698
H    -3.08651   0.66533   1.57036
H    -3.25229   1.99734   0.39080
