24
Generated by autodE on: 2022-06-01. E = -460.117419 Ha
C     3.75554  -0.52747  -0.14126
N     2.55485   0.27322  -0.04302
C     1.31382  -0.30079  -0.16038
O     1.22048  -1.48981  -0.59364
C     0.15530   0.46875   0.19148
C     0.17102   1.85268   0.76213
N    -0.99908  -0.23917  -0.05646
C    -2.29530  -0.03383  -0.00935
C    -2.92728   1.27213   0.35225
C    -3.19666  -1.19066  -0.30440
H     3.75468  -1.11617  -1.07014
H     3.87396  -1.23668   0.69967
H     4.63045   0.13649  -0.15438
H     2.62865   1.16080   0.43837
H    -0.60558   1.98433   1.53032
H     0.03201   2.65696   0.01502
H     1.12936   2.05098   1.26583
H    -0.71213  -1.18147  -0.36567
H    -3.89911   1.35682  -0.15805
H    -3.13263   1.33694   1.43664
H    -2.31440   2.13706   0.07208
H    -3.87103  -0.95950  -1.14800
H    -3.84684  -1.40857   0.56267
H    -2.63110  -2.10305  -0.54648
