24
Generated by autodE on: 2022-07-26. E = -460.109148 Ha
C     1.92631  -0.10604   2.34174
N     0.96574  -0.18457   1.26077
C     0.82181   0.88550   0.38964
O     1.36853   1.98379   0.68938
C     0.13131   0.70190  -0.84913
C     0.30072   1.69819  -1.95876
N    -0.54951  -0.45674  -1.19939
C    -1.39440  -1.21625  -0.52515
C    -1.91475  -0.78662   0.79298
C    -1.84064  -2.50283  -1.13256
H     1.86260  -1.02339   2.94331
H     1.70489   0.75009   2.99576
H     2.97014   0.00813   1.99197
H     0.81066  -1.11155   0.87897
H     1.20178   2.30848  -1.80462
H     0.39748   1.18375  -2.93387
H    -0.55309   2.39610  -2.06412
H    -0.41604  -0.74114  -2.17691
H    -2.90672  -1.22934   0.96444
H    -1.25731  -1.08208   1.62972
H    -1.96978   0.31611   0.82978
H    -1.52405  -2.59283  -2.18313
H    -2.93729  -2.59554  -1.07264
H    -1.42008  -3.36156  -0.57840
