37
Generated by autodE on: 2022-06-01. E = -866.893853 Ha. Imaginary frequency = -235.3 cm-1
C     3.06530  -0.94515   2.06091
N     2.62914  -1.08867   0.68711
C     2.15533  -0.02464  -0.02443
O     2.44785   1.14091   0.32856
C     1.40425  -0.28233  -1.25112
C     1.80169   0.53277  -2.45370
N     0.76116  -1.46886  -1.52396
C    -0.09368  -2.23423  -0.82429
C    -0.03433  -2.42771   0.65580
C    -0.81405  -3.29182  -1.60544
C    -1.68117  -0.21801  -0.61253
C    -2.08164  -0.04040   0.86899
C    -2.97646   1.22066   0.97744
C    -2.11418   2.20681   0.73128
F    -2.32421   3.51660   0.59967
C    -0.73340   1.57149   0.48558
O    -0.84090   0.47905   1.41495
C    -0.81611   0.81325  -0.85292
H     2.23309  -0.66538   2.73249
H     3.84057  -0.17021   2.14503
H     3.48595  -1.89850   2.40609
H     2.37495  -2.01890   0.38280
H     1.90958   1.58751  -2.16496
H     2.76845   0.21218  -2.88776
H     1.04025   0.47868  -3.24783
H     0.62212  -1.58841  -2.52751
H    -0.99497  -2.83663   0.99920
H     0.73912  -3.17516   0.92218
H     0.16765  -1.50521   1.20563
H    -0.84301  -3.06142  -2.68151
H    -1.84911  -3.39036  -1.24258
H    -0.33676  -4.28201  -1.47903
H    -2.28143  -0.76870  -1.33409
H    -2.42080  -0.92479   1.41898
H    -4.05494   1.24543   1.11917
H     0.14673   2.19473   0.66970
H    -0.58294   1.27967  -1.80713
