13
Generated by autodE on: 2022-10-06. E = -245.298490 Ha
C    -1.85042   0.42435  -0.55448
N    -0.85841  -0.38108   0.13655
C     0.44909  -0.11109   0.14040
N     1.29069  -0.90842   0.80537
N     0.92036   0.94821  -0.52116
H    -1.67383   0.43713  -1.64187
H    -2.83737  -0.01434  -0.36973
H    -1.85717   1.46150  -0.18278
H    -1.16796  -1.19761   0.65394
H     2.28473  -0.70911   0.82253
H     0.94254  -1.71319   1.31489
H     0.29968   1.58045  -1.01239
H     1.91090   1.16520  -0.49729
