23
Generated by autodE on: 2022-10-06. E = -625.463078 Ha
C    -1.09685   3.51978  -0.26309
N    -0.21457   2.41172   0.01977
N    -0.71238   1.26867  -0.20887
C    -0.16883   0.03343  -0.05842
C     1.20623  -0.20005   0.43310
O     1.68719  -1.33943   0.55595
N     1.92399   0.90289   0.74486
C     3.28216   0.79193   1.22999
C    -1.13389  -0.99557  -0.45207
O    -2.26295  -0.71175  -0.85301
O    -0.71023  -2.25536  -0.34812
C    -1.63987  -3.27653  -0.73356
H    -0.61870   4.18582  -0.99954
H    -1.24513   4.11051   0.65558
H    -2.08008   3.20003  -0.64981
H    -1.68773   1.19678  -0.57093
H     1.48207   1.81486   0.62175
H     3.93508   0.29011   0.49701
H     3.67437   1.79932   1.41763
H     3.33205   0.21370   2.16724
H    -1.11674  -4.22792  -0.58176
H    -2.54299  -3.23672  -0.10731
H    -1.92415  -3.16458  -1.79000
