36
Generated by autodE on: 2022-10-06. E = -870.687786 Ha. Imaginary frequency = -227.1 cm-1
C     3.41921  -1.70783   0.56975
N     2.30691  -0.77499   0.61069
C     1.17192  -1.01253  -0.05428
O     0.99795  -2.01641  -0.74719
C     0.08419   0.08284   0.12097
C     0.57356   1.39255  -0.48979
O     1.29821   1.44402  -1.45761
O     0.10310   2.44641   0.16125
C     0.47657   3.74770  -0.33377
N    -0.22591   0.22625   1.52288
N    -0.62139  -0.92811   1.98855
C    -1.44699  -0.83998   3.17685
N    -1.77932  -1.41442   0.51310
C    -1.38684  -0.41855  -0.47278
N    -2.27937   0.69634  -0.30146
N    -1.38239  -1.01700  -1.78640
C    -1.12166  -0.13729  -2.92239
H     3.14714  -2.67092   1.03005
H     3.72878  -1.89826  -0.46868
H     4.26196  -1.27446   1.12081
H     2.37883   0.04981   1.19875
H     1.56827   3.86368  -0.29516
H     0.12305   3.86912  -1.36678
H    -0.01235   4.46891   0.32958
H    -0.80562   1.05190   1.73090
H    -1.97803  -1.79020   3.30609
H    -0.75977  -0.71195   4.02881
H    -2.15364   0.00544   3.14395
H    -1.50824  -2.37319   0.29020
H    -2.75140  -1.34225   0.81956
H    -1.97851   1.50519  -0.84349
H    -3.20354   0.43294  -0.65131
H    -0.68501  -1.76303  -1.77517
H    -1.76623   0.75174  -2.87775
H    -0.07544   0.19766  -3.00335
H    -1.37764  -0.67499  -3.84716
