47
Generated by autodE on: 2022-06-03. E = -1463.081833 Ha
C    -3.26692   3.33039  -0.31753
N    -2.52903   2.14676   0.06985
C    -1.18953   2.11693   0.02419
O    -0.50137   3.09317  -0.31115
C    -0.54741   0.81026   0.34883
C     0.69583   0.63428   0.83448
C     1.66376   1.68303   1.33634
F     2.55252   1.14212   2.18723
F     1.03807   2.66398   1.99300
F     2.36205   2.23358   0.33112
N     1.08710  -0.70298   0.90958
C     2.35635  -1.08078   0.33889
C     3.26315  -1.77998   1.13546
C     4.49968  -2.15147   0.60043
C     4.81387  -1.82898  -0.72323
C     3.89484  -1.13141  -1.51700
C     2.66142  -0.75229  -0.98757
O     0.03704  -1.43649   0.22615
C    -1.11362  -0.57297   0.04425
C    -2.20066  -0.95943   1.07893
O    -3.26097  -0.31839   1.14414
N    -1.91319  -1.99051   1.86869
C    -2.83334  -2.46397   2.88526
C    -1.61358  -0.74440  -1.38396
C    -1.00018  -0.01924  -2.41632
C    -1.39400  -0.20856  -3.74192
C    -2.40069  -1.12991  -4.04959
C    -3.00965  -1.86026  -3.02538
C    -2.61724  -1.66963  -1.69763
H    -4.34080   3.11445  -0.25874
H    -3.02028   3.63113  -1.34846
H    -3.04044   4.18329   0.34294
H    -3.02062   1.30727   0.40131
H     2.99625  -2.01729   2.16642
H     5.21762  -2.69493   1.21836
H     5.78002  -2.12198  -1.14042
H     4.14231  -0.88042  -2.55074
H     1.93149  -0.21225  -1.59366
H    -1.02945  -2.46474   1.70638
H    -2.33592  -3.23763   3.48174
H    -3.74240  -2.89104   2.43268
H    -3.13645  -1.63896   3.54688
H    -0.21251   0.69991  -2.18252
H    -0.91341   0.36591  -4.53701
H    -2.71016  -1.27765  -5.08683
H    -3.79510  -2.58271  -3.25838
H    -3.10243  -2.24807  -0.90946
