14
Generated by autodE on: 2022-06-03. E = -622.674907 Ha
C    -3.10940   0.96732  -0.03189
N    -2.96091  -0.30284  -0.71817
C    -1.83437  -1.00761  -0.90859
O    -1.78014  -2.08671  -1.50528
C    -0.60225  -0.43370  -0.35889
C     0.46369  -0.04431   0.05954
C     1.74118   0.45203   0.57786
F     2.37275  -0.48571   1.29944
F     1.56409   1.52069   1.37060
F     2.55992   0.81885  -0.41915
H    -3.49759   1.73583  -0.71755
H    -3.80599   0.86964   0.81448
H    -2.13965   1.30388   0.35378
H    -3.79639  -0.73043  -1.11512
