33
Generated by autodE on: 2022-07-27. E = -840.283930 Ha
C    -1.96846  -0.60402   3.77778
N    -1.25902  -0.43678   2.52759
C    -1.92826  -0.20806   1.38465
O    -3.16591  -0.13385   1.33249
C    -1.10713  -0.04278   0.14458
O     0.19665  -0.01759   0.13564
N     1.00229  -0.10234   1.20827
C     2.32331  -0.07504   0.80690
C     3.27811  -0.08431   1.85116
C     4.63921  -0.05359   1.56198
C     5.08451  -0.01395   0.23419
C     4.14305  -0.01037  -0.80320
C     2.77637  -0.04434  -0.53370
C    -1.68649   0.15866  -1.17913
C    -0.94187   0.85600  -2.15985
C    -1.44886   1.02820  -3.44423
C    -2.70566   0.51119  -3.78162
C    -3.44979  -0.18168  -2.82120
C    -2.95319  -0.35867  -1.53101
H    -2.56464   0.29044   4.02183
H    -1.23978  -0.77571   4.57907
H    -2.65896  -1.46122   3.73128
H    -0.23345  -0.41335   2.48079
H     2.92615  -0.10994   2.88462
H     5.36176  -0.05903   2.38179
H     6.15301   0.00990   0.01006
H     4.47950   0.01376  -1.84283
H     2.05682  -0.05447  -1.35208
H     0.02849   1.27888  -1.89666
H    -0.86503   1.57814  -4.18569
H    -3.10359   0.65040  -4.78933
H    -4.42673  -0.59579  -3.08062
H    -3.53171  -0.90959  -0.79366
