47
Generated by autodE on: 2022-06-03. E = -1462.970751 Ha. Imaginary frequency = -213.3 cm-1
C    -3.49927   2.69315  -1.16277
N    -2.56912   2.08706  -0.22816
C    -1.24579   2.18848  -0.43579
O    -0.72937   2.91633  -1.29329
C    -0.38332   1.35307   0.39834
C     0.55057   0.95786   1.10881
C     1.47746   1.13603   2.23609
F     1.39037   0.12589   3.12198
F     1.20449   2.26981   2.90745
F     2.75847   1.21163   1.83831
N     1.04334  -1.12520   0.52875
C     2.36786  -1.26332   0.09043
C     3.30307  -1.64446   1.07181
C     4.64908  -1.77858   0.73823
C     5.07843  -1.54646  -0.57356
C     4.14725  -1.17284  -1.55075
C     2.79903  -1.02464  -1.22960
O     0.21755  -1.12717  -0.54610
C    -1.05134  -0.80423  -0.39872
C    -1.79738  -0.98419   0.90446
O    -2.91644  -0.46343   1.04675
N    -1.20512  -1.71659   1.85363
C    -1.76400  -1.79863   3.18959
C    -1.75023  -0.61016  -1.66889
C    -1.03389  -0.07761  -2.76323
C    -1.66658   0.13033  -3.98495
C    -3.02254  -0.18366  -4.13718
C    -3.74042  -0.70999  -3.05854
C    -3.11578  -0.92185  -1.83082
H    -3.37229   2.28574  -2.17968
H    -3.35253   3.78196  -1.21004
H    -4.52229   2.48934  -0.82419
H    -2.89007   1.28905   0.33009
H     2.95718  -1.82647   2.09037
H     5.36749  -2.07375   1.50641
H     6.13324  -1.65676  -0.83436
H     4.47654  -0.98921  -2.57624
H     2.08019  -0.72637  -1.99207
H    -0.20154  -1.87754   1.72570
H    -1.21321  -2.55786   3.75800
H    -2.82490  -2.08013   3.14878
H    -1.68217  -0.83133   3.71402
H     0.01182   0.20325  -2.63400
H    -1.10414   0.55342  -4.81988
H    -3.51994  -0.01189  -5.09437
H    -4.79743  -0.95910  -3.17350
H    -3.68299  -1.33029  -0.99705
