37
Generated by autodE on: 2022-10-07. E = -1103.881941 Ha
C    -4.45897   1.59002  -0.59624
N    -3.13185   1.09558  -0.90091
C    -2.70187  -0.10678  -0.48074
O    -3.42965  -0.89151   0.14327
C    -1.29425  -0.51625  -0.91528
C    -1.48593  -1.40999  -2.15421
N    -0.45373   0.66465  -1.19900
C     0.95803   0.24633  -1.05919
C     1.62606   0.06477  -2.43001
C     1.69359   1.35125  -0.29240
O     1.14501   2.24046   0.33006
O     3.01684   1.29345  -0.46189
C     3.80252   2.21149   0.30426
C     0.93957  -1.11962  -0.27086
C     1.95792  -1.31220   0.87235
O     2.50621  -2.44135   0.94889
O     2.14243  -0.35028   1.66649
C    -0.53486  -1.28030   0.19322
C    -0.78688  -0.71991   1.61117
O    -1.07114   0.50374   1.72896
O    -0.67954  -1.54222   2.55797
H    -4.61046   2.54715  -1.11047
H    -4.59304   1.74653   0.48688
H    -5.23185   0.88119  -0.93233
H    -2.47698   1.68308  -1.40584
H    -1.85831  -0.81764  -3.00307
H    -2.21693  -2.19960  -1.92722
H    -0.54853  -1.89691  -2.45325
H    -0.60987   1.28898  -0.40322
H     1.04008  -0.63367  -3.04118
H     1.68380   1.02390  -2.96698
H     2.64220  -0.33856  -2.32146
H     3.65420   2.02460   1.37795
H     3.53096   3.25073   0.06983
H     4.84694   2.02255   0.02932
H     1.14661  -1.91363  -0.99966
H    -0.79810  -2.34582   0.21470
