27
Generated by autodE on: 2022-10-07. E = -648.781073 Ha
C    -4.56939   0.16792  -1.17438
N    -3.55204   0.10220  -0.14534
C    -2.23972   0.04868  -0.45334
O    -1.84423   0.04894  -1.63936
C    -1.28042  -0.00826   0.66809
C    -1.71674  -0.03258   2.09651
N    -0.02719  -0.01571   0.23122
C     1.21390  -0.01901   0.75397
C     1.50601   0.01867   2.21838
C     2.23280  -0.05882  -0.27051
O     2.00506  -0.07991  -1.48538
O     3.49331  -0.07141   0.21868
C     4.55085  -0.10517  -0.74054
H    -4.44979   1.06566  -1.80238
H    -5.55565   0.20218  -0.69591
H    -4.52826  -0.71209  -1.83616
H    -3.83995   0.11796   0.82571
H    -2.52788  -0.76566   2.23540
H    -2.10863   0.94906   2.41727
H    -0.90728  -0.31044   2.77645
H    -0.01228  -0.01327  -0.80620
H     1.22145  -0.91655   2.73091
H     2.58055   0.16655   2.37403
H     0.97591   0.84544   2.71847
H     5.48409  -0.11275  -0.16426
H     4.48859  -1.01006  -1.36379
H     4.52078   0.78124  -1.39218
