10
Generated by autodE on: 2022-10-07. E = -455.045349 Ha
O    -0.81804  -1.33789   0.94361
C    -1.46611  -0.40278   0.40447
O    -2.61708  -0.49223  -0.10639
C    -0.85272   0.98337   0.36790
C     0.39916   1.29173  -0.00766
C     1.48379   0.31496  -0.41749
O     1.20805  -0.57105  -1.26838
O     2.60634   0.49850   0.12964
H    -1.54265   1.79602   0.62837
H     0.71624   2.34203   0.02018
