37
Generated by autodE on: 2022-10-07. E = -1103.814789 Ha. Imaginary frequency = -391.7 cm-1
C    -3.39648   1.46450   0.76976
N    -2.20459   0.98146   0.10448
C    -2.30778   0.02839  -0.84771
O    -3.39525  -0.35877  -1.30399
C    -1.01185  -0.57392  -1.30628
C    -1.16741  -1.72938  -2.25506
N     0.01995   0.31057  -1.38599
C     1.34745   0.02572  -1.24605
C     2.01117  -1.14837  -1.90229
C     2.12886   1.21934  -0.90187
O     1.64326   2.33251  -0.72657
O     3.43277   0.96141  -0.70406
C     4.20964   2.02067  -0.13419
C     0.97056  -0.94402   0.83843
C     1.06904   0.31558   1.64675
O     2.14372   0.50635   2.28173
O     0.12071   1.16195   1.59036
C    -0.19410  -1.66354   0.54216
C    -1.49427  -1.75116   1.32802
O    -1.63354  -1.10612   2.40199
O    -2.36532  -2.53613   0.84490
H    -3.12155   2.28706   1.44361
H    -3.87657   0.66909   1.36709
H    -4.13431   1.83524   0.04315
H    -1.32262   1.01374   0.66058
H    -1.69594  -1.39374  -3.16457
H    -1.78370  -2.50511  -1.78290
H    -0.21285  -2.16811  -2.55628
H    -0.18148   1.22685  -0.97917
H     1.55631  -2.10375  -1.61642
H     1.96117  -1.06148  -3.00194
H     3.06756  -1.17858  -1.61298
H     5.23049   1.63137  -0.04188
H     4.20143   2.90818  -0.78344
H     3.81490   2.28470   0.85734
H     1.92843  -1.45182   0.70558
H    -0.01750  -2.60070   0.00485
