32
Generated by autodE on: 2022-06-18. E = -823.056214 Ha
C     5.16314  -0.76467   0.21211
O     3.92969  -0.36980  -0.41464
C     2.92227  -1.24068  -0.34895
O     2.97568  -2.33696   0.18115
C     1.74739  -0.78696  -1.09973
N     0.72395  -0.31195  -0.63057
C    -0.42097   0.11025  -0.22542
C    -1.40729  -0.90766   0.20395
C    -0.96696  -2.15806   0.68217
C    -1.88681  -3.13947   1.04977
C    -3.26034  -2.89240   0.94904
C    -3.70637  -1.65721   0.46857
C    -2.79087  -0.67141   0.09669
C    -0.67412   1.56893  -0.21914
C    -0.02697   2.39845  -1.15454
C    -0.23848   3.77665  -1.14514
C    -1.09478   4.35151  -0.19928
C    -1.73363   3.53639   0.74026
C    -1.52727   2.15573   0.73372
H     5.85892   0.06675   0.05252
H     5.55210  -1.68158  -0.25343
H     5.01219  -0.93243   1.28807
H     0.10313  -2.35751   0.77024
H    -1.52848  -4.10132   1.42375
H    -3.97968  -3.66024   1.24266
H    -4.77672  -1.45970   0.37452
H    -3.15344   0.27846  -0.29734
H     0.64158   1.95555  -1.89603
H     0.26520   4.40575  -1.88273
H    -1.26082   5.43117  -0.19297
H    -2.39452   3.97800   1.48970
H    -2.01738   1.53382   1.48366
