38
Generated by autodE on: 2022-06-18. E = -901.672987 Ha. Imaginary frequency = -362.4 cm-1
C     5.27334  -0.68014   0.34084
O     3.91763  -0.30738   0.03671
C     2.99705  -1.27033   0.13426
O     3.21905  -2.42602   0.44475
C     1.68711  -0.79720  -0.31135
N     0.71232  -0.36935   0.28426
C    -0.51646   0.10466   0.10461
C    -1.63504  -0.82050   0.41073
C    -1.48574  -2.19904   0.15205
C    -2.51729  -3.09266   0.42937
C    -3.72133  -2.63368   0.97905
C    -3.87449  -1.27329   1.25667
C    -2.84123  -0.37376   0.98089
C    -0.65673   1.57553   0.06749
C    -1.79154   2.18328  -0.50835
C    -1.88587   3.57134  -0.59593
C    -0.85376   4.38591  -0.11477
C     0.27941   3.79395   0.45010
C     0.37801   2.40448   0.54272
C    -0.19347  -0.25642  -2.41050
C     1.07222  -0.78185  -2.44106
H     5.87511   0.22079   0.17677
H     5.60596  -1.48875  -0.32562
H     5.35574  -1.00740   1.38715
H    -0.55187  -2.56882  -0.27537
H    -2.38333  -4.15544   0.21429
H    -4.53062  -3.33498   1.19473
H    -4.80237  -0.90497   1.70060
H    -2.97260   0.67966   1.22707
H    -2.58850   1.56351  -0.92070
H    -2.77018   4.02141  -1.05339
H    -0.93254   5.47324  -0.18349
H     1.09296   4.41725   0.82899
H     1.26396   1.95317   0.99305
H    -0.36378   0.80955  -2.56907
H    -1.07522  -0.89961  -2.39462
H     1.23134  -1.86043  -2.53098
H     1.93053  -0.15844  -2.70869
