34
Generated by autodE on: 2022-06-17. E = -691.242201 Ha
C    -2.60779   2.51442   0.02281
C    -1.61553   1.40152  -0.25153
N    -0.42205   1.50977   0.58819
N     0.16989   0.21518   0.60242
C     1.53634   0.15528   0.31783
C     2.26178   1.30173  -0.07504
C     3.63242   1.22972  -0.32715
C     4.32926   0.02410  -0.19583
C     3.62237  -1.11298   0.21028
C     2.25408  -1.05343   0.47484
C    -0.80715  -0.84565   0.16377
C    -0.42381  -1.44529  -1.19806
C    -0.98613  -1.95025   1.20772
C    -2.12394  -0.01040   0.06679
C    -3.10689  -0.56003  -0.92249
O    -4.06170  -1.24942  -0.61921
H    -2.16167   3.49881  -0.18551
H    -2.93516   2.49451   1.07551
H    -3.49844   2.39815  -0.61314
H    -1.30064   1.43519  -1.30897
H    -0.74344   1.69878   1.54238
H     1.73033   2.24617  -0.17295
H     4.16169   2.13588  -0.63484
H     5.40204  -0.02654  -0.39419
H     4.14384  -2.06519   0.33936
H     1.74239  -1.94940   0.82205
H     0.54701  -1.95349  -1.14729
H    -1.16720  -2.19640  -1.50478
H    -0.36271  -0.67157  -1.97717
H    -1.13757  -1.51506   2.20653
H    -1.87180  -2.55519   0.95692
H    -0.11995  -2.62602   1.24520
H    -2.61050  -0.00605   1.05505
H    -2.92090  -0.29524  -1.99028
