14
Generated by autodE on: 2022-06-17. E = -270.683219 Ha
C    -1.96533   1.24181  -0.34103
C    -0.79895   0.33059  -0.12309
C    -1.10943  -1.13684  -0.04446
C     0.45901   0.83799  -0.00863
C     1.67373   0.06532   0.20290
O     1.75997  -1.15652   0.30324
H    -2.69828   1.11421   0.47511
H    -2.49311   0.96009  -1.26921
H    -1.67237   2.29918  -0.39960
H    -0.75020  -1.56672   0.90370
H    -0.58762  -1.69018  -0.84186
H    -2.18935  -1.31951  -0.13461
H     0.59997   1.92069  -0.07702
H     2.59985   0.68596   0.27550
