20
Generated by autodE on: 2022-07-27. E = -420.509306 Ha
C    -2.97265   2.57566  -0.55110
C    -1.87621   1.57979  -0.43329
N    -1.94934   0.59849   0.43445
N    -1.20821  -0.46405   0.74011
C     0.09835  -0.55504   0.30446
C     0.97309   0.49827  -0.07544
C     2.31103   0.24158  -0.39042
C     2.83010  -1.05520  -0.36367
C     1.98194  -2.10792   0.01274
C     0.65437  -1.86377   0.34328
H    -3.79205   2.36455   0.15405
H    -2.60194   3.59731  -0.35641
H    -3.38461   2.58070  -1.57532
H    -1.01969   1.62148  -1.10239
H    -2.81309   0.59633   0.98668
H     0.63370   1.53230  -0.08848
H     2.95627   1.08076  -0.66551
H     3.87273  -1.24512  -0.62777
H     2.36386  -3.13195   0.04907
H    -0.00143  -2.68265   0.64849
