20
Generated by autodE on: 2022-06-17. E = -420.515341 Ha
C     4.07777  -0.62192   0.64270
C     3.04629   0.39310   0.32320
N     1.78771   0.08822   0.22187
N     0.80934   0.92959  -0.05521
C    -0.43343   0.35928  -0.11884
C    -0.75270  -1.00953   0.06847
C    -2.07206  -1.45695  -0.02568
C    -3.12179  -0.57561  -0.30767
C    -2.82041   0.78199  -0.49643
C    -1.51041   1.23903  -0.40470
H     4.61847  -0.35234   1.56696
H     3.63727  -1.62214   0.77405
H     4.83469  -0.67501  -0.15951
H     3.30262   1.44295   0.15932
H     1.56528  -0.90643   0.38028
H     0.01915  -1.75185   0.28887
H    -2.27899  -2.52034   0.12496
H    -4.15006  -0.93629  -0.37974
H    -3.62046   1.49377  -0.71845
H    -1.27770   2.29643  -0.55211
