34
Generated by autodE on: 2022-06-17. E = -691.187440 Ha. Imaginary frequency = -308.2 cm-1
C    -2.33544   2.52138   0.36004
C    -1.23208   1.54241   0.20781
N    -0.57118   1.08474   1.26491
N     0.23472  -0.00331   1.22607
C     1.44367   0.11146   0.54731
C     1.89376   1.25213  -0.15855
C     3.15287   1.26777  -0.76398
C     3.99931   0.15681  -0.70228
C     3.57369  -0.97183   0.01099
C     2.32956  -0.99055   0.63510
C    -1.12866  -1.39591   0.24344
C    -0.26151  -2.02737  -0.81442
C    -1.34225  -2.22610   1.48377
C    -2.18534  -0.52903  -0.13856
C    -2.52953  -0.21094  -1.49427
O    -3.56724   0.36987  -1.84387
H    -1.98241   3.53978   0.12474
H    -2.74873   2.50958   1.37959
H    -3.13395   2.27872  -0.35890
H    -0.72276   1.47186  -0.75215
H    -1.05544   1.19231   2.15956
H     1.27179   2.14474  -0.22171
H     3.47183   2.16817  -1.29620
H     4.97775   0.17369  -1.18721
H     4.22753  -1.84393   0.09629
H     2.02270  -1.85732   1.22291
H     0.59283  -2.54903  -0.36761
H    -0.84954  -2.78024  -1.36727
H     0.12578  -1.30071  -1.54134
H    -1.83026  -1.64184   2.27791
H    -2.00029  -3.08167   1.24351
H    -0.39646  -2.62967   1.87106
H    -2.97141  -0.32736   0.59630
H    -1.78447  -0.49470  -2.27233
