49
Generated by autodE on: 2022-05-31. E = -1112.312756 Ha
C    -1.89818  -3.09666   2.77884
N    -1.25262  -2.23490   1.80996
C    -1.95490  -1.50042   0.93778
O    -3.18638  -1.49696   0.89416
C    -1.09482  -0.63677  -0.03395
C    -1.55602  -1.07537  -1.43311
O    -2.68421  -0.92379  -1.85037
O    -0.59320  -1.66665  -2.14145
C    -0.94313  -2.08455  -3.46985
N     0.31799  -0.94241   0.15941
C     0.99622   0.12152   0.39916
C     2.45459   0.07618   0.62744
C     3.18248  -1.09517   0.34413
C     4.55765  -1.14493   0.56209
C     5.23026  -0.02513   1.06736
C     4.51845   1.14394   1.34978
C     3.14037   1.19716   1.12862
C     0.20719   1.39970   0.44627
C     0.47476   2.39014  -0.71621
C    -0.31139   3.68196  -0.40958
C    -1.78456   3.26293  -0.68819
C    -1.67458   1.76205  -1.03476
C    -0.36221   1.76711  -1.84809
C    -1.27722   0.94341   0.23200
C    -2.14330   1.22699   1.45789
H    -2.64972  -2.53686   3.35568
H    -2.40795  -3.94473   2.29223
H    -1.14087  -3.48898   3.46846
H    -0.24150  -2.23175   1.70628
H    -1.76217  -2.81717  -3.43928
H    -0.03903  -2.54067  -3.88896
H    -1.24858  -1.21751  -4.07316
H     2.65407  -1.96139  -0.05543
H     5.11112  -2.05903   0.33479
H     6.30874  -0.06460   1.23767
H     5.03753   2.02041   1.74413
H     2.59743   2.11519   1.35677
H     0.35608   1.89171   1.41894
H     1.54146   2.54610  -0.92353
H     0.00634   4.49819  -1.07538
H    -0.15143   4.01659   0.62646
H    -2.18308   3.79655  -1.56385
H    -2.46275   3.46971   0.14926
H    -2.56518   1.37289  -1.53704
H    -0.42078   2.40882  -2.74023
H    -0.00126   0.77792  -2.16126
H    -3.20261   1.00852   1.26852
H    -1.81569   0.62302   2.31683
H    -2.05086   2.27956   1.75630
