20
Generated by autodE on: 2022-05-31. E = -312.193372 Ha
C     2.43533   0.53473  -0.56467
C     1.10323  -0.04545  -0.22946
C     0.36141  -0.94454  -0.90477
C    -0.99373  -1.03797  -0.22093
C    -1.72723   0.31189  -0.51799
C    -0.86814   1.34754   0.26564
C     0.23694   0.45748   0.92234
C    -0.57815  -0.81030   1.24891
H     2.35417   1.62280  -0.73909
H     3.14906   0.40777   0.26826
H     2.86799   0.07525  -1.46657
H     0.61912  -1.41992  -1.85468
H    -1.59023  -1.93324  -0.44250
H    -2.76051   0.28056  -0.13848
H    -1.77325   0.51989  -1.59693
H    -0.43230   2.12374  -0.38076
H    -1.46203   1.85451   1.04160
H     0.77885   0.94212   1.74620
H     0.04045  -1.62680   1.65121
H    -1.42991  -0.62301   1.92284
