49
Generated by autodE on: 2022-05-31. E = -1112.226777 Ha. Imaginary frequency = -298.0 cm-1
C    -3.85639  -2.68358   1.92333
N    -2.93127  -2.40649   0.84629
C    -1.66948  -1.98967   1.09724
O    -1.18729  -1.98157   2.24517
C    -0.88599  -1.50950  -0.05599
C    -1.35281  -1.49258  -1.42211
O    -2.52855  -1.63759  -1.77016
O    -0.36809  -1.28529  -2.32094
C    -0.76665  -1.10648  -3.68289
N     0.39109  -1.18164   0.21213
C     1.13452  -0.29386   0.53659
C     2.54228  -0.03748   0.72191
C     3.46682  -0.70781  -0.10591
C     4.82886  -0.45261   0.03394
C     5.27800   0.45471   1.00096
C     4.36185   1.11608   1.82586
C     2.99459   0.88441   1.68252
C    -0.11718   1.55149   0.74554
C     0.54279   2.47158  -0.28166
C    -0.24920   3.81611  -0.23696
C    -1.62956   3.42552  -0.84135
C    -1.46512   1.89291  -1.12347
C     0.00465   1.86321  -1.58902
C    -1.38061   1.26345   0.25775
C    -2.60161   0.93017   1.04847
H    -4.13404  -1.76948   2.47798
H    -3.41948  -3.39210   2.64227
H    -4.76957  -3.12687   1.50553
H    -3.27659  -2.25496  -0.10063
H    -1.27819  -2.00332  -4.06187
H     0.15791  -0.93639  -4.24733
H    -1.43330  -0.23758  -3.78508
H     3.10253  -1.41451  -0.85346
H     5.54481  -0.96690  -0.61073
H     6.34745   0.64838   1.11030
H     4.71447   1.82214   2.58039
H     2.27702   1.40488   2.31677
H     0.09185   1.60838   1.81781
H     1.63057   2.58518  -0.19332
H     0.25605   4.57839  -0.84987
H    -0.32565   4.20811   0.78796
H    -1.81927   3.95744  -1.78605
H    -2.47224   3.63237  -0.16616
H    -2.22659   1.46819  -1.79182
H     0.18399   2.50192  -2.46748
H     0.38185   0.85441  -1.78862
H    -2.34556   0.47112   2.01319
H    -3.17439   1.85364   1.25539
H    -3.27556   0.25561   0.49962
