51
Generated by autodE on: 2022-10-22. E = -1427.649065 Ha
C     3.47639   2.85458   0.66123
N     2.64186   1.82247   0.07909
C     1.83675   1.06309   0.82993
O     1.82432   1.11776   2.06325
C     0.90595   0.04429   0.09261
C     1.70202  -0.56822  -1.07389
O     2.01050   0.11352  -2.06223
N     2.08878  -1.83997  -0.91548
C     2.77423  -2.56807  -1.96465
N     0.44508  -0.97194   1.02463
C    -0.72769  -0.48115   1.75433
C    -1.52097  -1.59214   2.44128
C    -0.75135  -2.82815   2.81519
O    -2.69134  -1.44121   2.74592
C    -1.47904   0.44766   0.76748
C    -1.94139   1.69217   1.54168
F    -2.62266   2.58208   0.80023
F    -0.92693   2.35982   2.12334
F    -2.77439   1.33942   2.54538
C    -2.67864  -0.15082  -0.03834
C    -2.35077  -1.57984  -0.51469
C    -1.26759  -1.35019  -1.59986
C    -1.12315   0.18465  -1.64335
C    -2.57518   0.61639  -1.37499
C    -0.42130   0.76295  -0.38297
O    -0.24477   2.16201  -0.46334
C     0.06474   2.77674  -1.70487
H     4.15477   2.43457   1.41991
H     4.07511   3.31705  -0.13295
H     2.86656   3.63441   1.14631
H     2.59985   1.70614  -0.93041
H     1.64930  -2.35305  -0.15521
H     3.18349  -3.49744  -1.54948
H     3.59761  -1.96292  -2.36843
H     2.09233  -2.81876  -2.79487
H     1.18699  -1.19617   1.68731
H    -0.39355   0.13364   2.61090
H    -0.40713  -3.34286   1.90485
H    -1.38521  -3.49729   3.41082
H     0.15212  -2.55445   3.38491
H    -3.62834  -0.07341   0.50261
H    -3.25960  -2.02849  -0.94122
H    -2.01037  -2.25489   0.27743
H    -0.33893  -1.88292  -1.38059
H    -1.61099  -1.69207  -2.58682
H    -0.66320   0.53894  -2.57015
H    -2.70729   1.69969  -1.28853
H    -3.27414   0.22775  -2.13006
H     0.40868   3.79222  -1.46272
H    -0.82288   2.85528  -2.35454
H     0.86147   2.24744  -2.24620
