27
Generated by autodE on: 2022-10-22. E = -702.971836 Ha
C    -1.19451   3.64609   0.10166
N    -0.95571   2.22208  -0.04331
C     0.21075   1.67107   0.36154
O     1.08555   2.37004   0.91200
C     0.42764   0.23520   0.11560
N    -0.52794  -0.65873  -0.16160
C    -1.85157  -0.70249  -0.22132
C    -2.43107  -1.99270  -0.55892
C    -3.93227  -2.07238  -0.59174
O    -1.70877  -2.96688  -0.80679
C     1.77125  -0.40648   0.11522
O     1.86937  -1.61132  -0.19682
N     2.82577   0.34615   0.45612
C     4.16498  -0.19938   0.50973
H    -0.51003   4.24311  -0.52403
H    -1.05341   3.95505   1.14725
H    -2.22784   3.86137  -0.19663
H    -1.56679   1.70616  -0.66637
H    -0.08824  -1.58498  -0.36068
H    -2.46624   0.15957   0.02166
H    -4.25167  -3.08466  -0.87096
H    -4.34575  -1.80987   0.39601
H    -4.33395  -1.34113  -1.31216
H     2.61773   1.29853   0.76205
H     4.26092  -0.96991   1.29320
H     4.44381  -0.66158  -0.44993
H     4.87008   0.61191   0.72832
