24
Generated by autodE on: 2022-10-22. E = -724.636336 Ha
C     2.46163  -1.33417  -0.05937
O     1.21945  -1.84150   0.43219
C     0.14572  -1.05374   0.51940
C    -0.11366   0.26099   0.26746
C     0.72250   1.33710  -0.31252
F     1.88045   1.55963   0.35598
F     1.08985   1.11416  -1.60864
F     0.06383   2.51592  -0.32395
C    -1.63442   0.41198   0.39242
C    -2.26582  -0.32792  -0.82690
C    -1.92858  -1.81723  -0.52571
C    -1.16938  -1.73500   0.83946
C    -1.92701  -0.58721   1.52724
H     2.86340  -0.56583   0.61560
H     2.33848  -0.91667  -1.06922
H     3.14809  -2.18895  -0.09615
H    -1.98105   1.44208   0.53266
H    -1.83875   0.02577  -1.77599
H    -3.35327  -0.16145  -0.85990
H    -2.83937  -2.42198  -0.40589
H    -1.31019  -2.28959  -1.30239
H    -1.06237  -2.69013   1.36807
H    -2.99968  -0.79676   1.65724
H    -1.48251  -0.28947   2.48797
