46
Generated by autodE on: 2022-06-20. E = -1055.929297 Ha
C    -4.33669   1.73448  -1.42401
O    -3.03150   1.19726  -1.14445
C    -2.76870   0.89000   0.11760
O    -3.53241   1.05031   1.04351
C    -1.40962   0.23530   0.27338
O    -0.96784   0.49027   1.66181
C     0.37256   0.32669   1.64488
O     1.04784   0.45013   2.63670
C     0.72649  -0.04908   0.18719
C     2.14749   0.17095  -0.25166
C     3.22010  -0.05861   0.62431
C     4.53977   0.07371   0.18172
C     4.80909   0.43469  -1.14050
C     3.74645   0.65724  -2.02182
C     2.42850   0.52163  -1.58246
N    -0.32064   0.71427  -0.53675
C    -0.14814   2.17186  -0.53986
C     0.19066  -1.54876   0.01922
C     0.65929  -2.11957  -1.32311
C     0.73222  -2.46836   1.11859
C    -1.39270  -1.31516   0.07832
C    -2.12599  -1.69692  -1.21467
C    -2.09916  -2.02623   1.23798
H    -5.11127   1.00873  -1.13918
H    -4.35988   1.91650  -2.50386
H    -4.48646   2.67288  -0.87242
H     3.02450  -0.33513   1.65841
H     5.36097  -0.10723   0.87931
H     5.84085   0.53979  -1.48415
H     3.94285   0.93407  -3.06030
H     1.60980   0.68114  -2.28374
H     0.75262   2.43295  -1.10633
H    -0.05660   2.60864   0.47154
H    -1.00713   2.63291  -1.04272
H     0.40859  -1.47526  -2.17343
H     1.74853  -2.26378  -1.31309
H     0.19778  -3.10292  -1.48956
H     1.82989  -2.51571   1.05611
H     0.34776  -3.48851   0.97655
H     0.46873  -2.15153   2.13532
H    -1.99572  -2.76853  -1.41737
H    -3.20579  -1.51626  -1.10421
H    -1.77376  -1.13361  -2.08601
H    -2.05875  -3.11432   1.08685
H    -3.15903  -1.73183   1.26701
H    -1.66111  -1.79978   2.21621
