18
Generated by autodE on: 2022-06-20. E = -235.968071 Ha
C     1.47623  -0.82879   1.00966
C     0.67180   0.04128   0.07398
C     1.54861   1.01504  -0.67608
C    -0.67179  -0.04130  -0.07402
C    -1.54862  -1.01494   0.67619
C    -1.47623   0.82871  -1.00975
H     0.88149  -1.55629   1.57478
H     2.24684  -1.38658   0.44770
H     2.02542  -0.20433   1.73715
H     1.00684   1.67434  -1.36468
H     2.10687   1.65293   0.03255
H     2.31297   0.47178  -1.26044
H    -1.00687  -1.67419   1.36485
H    -2.10693  -1.65288  -0.03236
H    -2.31295  -0.47158   1.26049
H    -2.02586   0.20408  -1.73675
H    -0.88142   1.55573  -1.57540
H    -2.24647   1.38703  -0.44782
