28
Generated by autodE on: 2022-06-20. E = -819.930108 Ha
C    -5.15716  -0.60065  -0.74117
O    -3.87211  -0.03981  -0.43463
C    -2.82834  -0.87199  -0.51108
O    -2.90614  -2.05294  -0.80957
C    -1.58668  -0.17797  -0.19802
O    -1.55431   1.13758   0.05497
C    -0.22026   1.52873   0.30523
O     0.04502   2.69139   0.56974
C     0.54321   0.33288   0.15844
C     1.99432   0.22309   0.27086
C     2.76272  -0.61624  -0.56255
C     4.15131  -0.66369  -0.43288
C     4.80277   0.13148   0.51496
C     4.05237   0.98221   1.33371
C     2.66393   1.02904   1.21618
N    -0.34776  -0.67565  -0.13327
C    -0.01029  -2.09602  -0.27014
H    -5.87599   0.21872  -0.62865
H    -5.17341  -0.98324  -1.77193
H    -5.39654  -1.41656  -0.04408
H     2.28041  -1.21462  -1.33558
H     4.72927  -1.31916  -1.08846
H     5.89025   0.09354   0.61057
H     4.55156   1.61021   2.07531
H     2.08445   1.69035   1.86128
H    -0.83750  -2.69408   0.11946
H     0.90095  -2.29116   0.30305
H     0.15282  -2.34203  -1.32732
