41
Generated by autodE on: 2022-06-20. E = -995.287533 Ha
C     4.00003   2.09646  -0.11073
N     2.90330   1.18227   0.13548
C     3.03678  -0.14448   0.18514
O     4.08394  -0.77960   0.05162
C     1.71166  -0.91882   0.42605
C     1.90993  -1.77136   1.61244
N     2.04766  -2.43730   2.55189
C     1.32813  -1.75056  -0.82264
C     0.41023  -0.78061  -1.55577
C    -0.36036  -0.11356  -0.40178
C    -1.54425  -0.96415   0.07164
C    -1.63663  -1.41507   1.39379
C    -2.73469  -2.17758   1.80815
C    -3.75351  -2.49478   0.90743
C    -3.66917  -2.04211  -0.41432
C    -2.57441  -1.28121  -0.82757
C    -0.83266   1.30407  -0.69279
C    -1.19403   1.69328  -1.98961
C    -1.66544   2.98668  -2.23525
C    -1.77540   3.90663  -1.18916
C    -1.41636   3.52326   0.10734
C    -0.95400   2.22883   0.35539
O     0.62929  -0.03381   0.66078
H     3.81815   2.68544  -1.02264
H     4.12461   2.79117   0.73393
H     4.92407   1.51992  -0.23711
H     1.96444   1.54816   0.27582
H     2.21649  -2.05148  -1.39005
H     0.78362  -2.65116  -0.50847
H    -0.25117  -1.28207  -2.27167
H     0.99929  -0.02230  -2.08965
H    -0.84705  -1.17100   2.10403
H    -2.78945  -2.52456   2.84290
H    -4.61001  -3.09082   1.23117
H    -4.46112  -2.28209  -1.12782
H    -2.52470  -0.92757  -1.85962
H    -1.11100   0.98747  -2.81757
H    -1.94258   3.27576  -3.25182
H    -2.13928   4.91847  -1.38256
H    -1.49925   4.23523   0.93208
H    -0.68348   1.93291   1.37000
