35
Generated by autodE on: 2022-06-20. E = -916.566845 Ha
C     4.42691  -2.16229   0.08369
N     3.18362  -1.43159  -0.02614
C     3.02283  -0.34727  -0.82791
O     3.93794   0.12434  -1.53159
C     1.70449   0.27126  -0.83452
C     1.43006   1.35829  -1.66856
N     1.22848   2.26285  -2.38657
O     0.74889  -0.36112  -0.09806
C    -0.48428  -0.10793   0.20584
C    -1.08824   1.20686  -0.02697
C    -0.42828   2.37050   0.41579
C    -1.02693   3.61665   0.24607
C    -2.27215   3.71833  -0.38399
C    -2.92888   2.56703  -0.83181
C    -2.34892   1.31345  -0.64399
C    -1.18745  -1.22055   0.82259
C    -0.66221  -2.53102   0.73173
C    -1.32298  -3.59407   1.33736
C    -2.51665  -3.37554   2.03819
C    -3.04468  -2.08352   2.13426
C    -2.38924  -1.01074   1.53438
H     4.80140  -2.16131   1.12029
H     4.30787  -3.21025  -0.23662
H     5.17712  -1.68527  -0.55778
H     2.39103  -1.74081   0.52564
H     0.54366   2.29256   0.90626
H    -0.51759   4.51416   0.60289
H    -2.73246   4.69867  -0.52625
H    -3.89838   2.64630  -1.32799
H    -2.85847   0.41332  -0.99136
H     0.25692  -2.70385   0.17055
H    -0.91292  -4.60296   1.25661
H    -3.03479  -4.21405   2.50877
H    -3.96996  -1.90926   2.68729
H    -2.79486  -0.00412   1.63548
