35
Generated by autodE on: 2022-07-27. E = -916.567814 Ha
C     4.78432   1.03295   0.58249
N     3.38638   0.66718   0.49609
C     2.89677  -0.41002   1.15973
O     3.61066  -1.10945   1.90548
C     1.48789  -0.72242   0.97090
C     0.88346  -1.76445   1.67932
N     0.40621  -2.64015   2.29552
O     0.79337   0.15376   0.19377
C    -0.41966   0.22148  -0.25312
C    -1.34024  -0.91627  -0.18584
C    -0.92462  -2.18505  -0.63612
C    -1.81754  -3.25403  -0.62581
C    -3.12030  -3.07711  -0.14733
C    -3.53666  -1.82144   0.30822
C    -2.65786  -0.74005   0.27832
C    -0.76412   1.50397  -0.84577
C    -1.88239   1.62998  -1.69912
C    -2.19240   2.86212  -2.27027
C    -1.39782   3.98249  -2.00433
C    -0.28351   3.86721  -1.16248
C     0.03376   2.64266  -0.58503
H     5.09728   1.16061   1.63020
H     4.93509   1.98305   0.05486
H     5.44147   0.27212   0.12730
H     2.78540   1.15734  -0.15638
H     0.09102  -2.32559  -1.01027
H    -1.49425  -4.23172  -0.98895
H    -3.81357  -3.92108  -0.12968
H    -4.55176  -1.68396   0.68653
H    -2.97991   0.24052   0.63212
H    -2.49244   0.75702  -1.93139
H    -3.05543   2.94725  -2.93381
H    -1.64608   4.94722  -2.45240
H     0.33399   4.74231  -0.94930
H     0.89024   2.55704   0.08468
