41
Generated by autodE on: 2022-06-20. E = -995.190955 Ha. Imaginary frequency = -344.7 cm-1
C     4.44342   1.74639   1.08526
N     3.13915   1.15173   0.87474
C     2.96761  -0.18631   0.87700
O     3.89742  -0.98562   1.07636
C     1.61251  -0.68530   0.58419
C     1.33052  -2.03650   0.89174
N     1.15153  -3.16964   1.11130
C     1.73836  -1.08566  -1.78930
C     0.48974  -0.71141  -2.20037
C    -0.51638   0.17866  -0.18448
C    -1.45828  -0.90231   0.18186
C    -1.50306  -1.35014   1.51476
C    -2.43620  -2.31076   1.90705
C    -3.34121  -2.83172   0.97893
C    -3.31811  -2.37552  -0.34449
C    -2.38999  -1.41422  -0.73986
C    -1.00269   1.49051  -0.64208
C    -2.37731   1.79017  -0.70003
C    -2.80983   3.04288  -1.13889
C    -1.88298   4.01665  -1.51975
C    -0.51240   3.73029  -1.46204
C    -0.07542   2.48092  -1.03319
O     0.66416   0.25561   0.42050
H     5.16944   1.39484   0.33513
H     4.35159   2.83616   1.00243
H     4.84398   1.50101   2.08224
H     2.33330   1.74924   0.72936
H     2.57980  -0.39178  -1.85193
H     1.98792  -2.13320  -1.61046
H    -0.28799  -1.46102  -2.34924
H     0.31958   0.27038  -2.64278
H    -0.81528  -0.93269   2.25173
H    -2.45697  -2.64920   2.94527
H    -4.06798  -3.58729   1.28563
H    -4.02764  -2.77263  -1.07373
H    -2.38119  -1.06074  -1.77156
H    -3.11194   1.04999  -0.38386
H    -3.87959   3.26066  -1.17360
H    -2.22454   4.99587  -1.86279
H     0.21778   4.48427  -1.76441
H     0.99093   2.25324  -1.01555
