29
Generated by autodE on: 2022-06-16. E = -670.836298 Ha
C     3.94157  -1.05073  -0.00301
O     2.54324  -1.02903  -0.33234
C     1.75201  -0.33735   0.48208
O     2.13913   0.27445   1.45889
C     0.30723  -0.39300   0.09921
N    -0.20674  -1.39053  -0.50984
C    -1.66441  -1.19616  -0.58364
C    -2.33457  -2.16311   0.38920
C    -1.92172   0.32704  -0.31781
C    -1.90358   1.06233  -1.66750
C    -3.21810   0.64467   0.42324
C    -0.65105   0.68802   0.53340
C    -0.16288   2.09088   0.31138
O     0.81932   2.37324  -0.34569
H     4.34909  -0.02950  -0.00015
H     4.09540  -1.50900   0.98452
H     4.42522  -1.65165  -0.78133
H    -1.99198  -1.45741  -1.60228
H    -2.06118  -1.93498   1.43117
H    -3.42856  -2.11280   0.29557
H    -2.02033  -3.19489   0.17128
H    -2.03278   2.14828  -1.53824
H    -0.96140   0.89413  -2.21148
H    -2.73060   0.70016  -2.29728
H    -4.09141   0.31053  -0.15868
H    -3.31242   1.73181   0.57209
H    -3.25667   0.16616   1.41205
H    -0.88015   0.58092   1.60874
H    -0.78514   2.88958   0.77756
