15
Generated by autodE on: 2022-06-16. E = -400.060330 Ha
C    -3.28986  -0.90611   0.51546
C    -2.55664   0.12894  -0.27483
N    -1.36694   0.49224  -0.01061
C    -0.25605   0.89999   0.33071
C     1.01681   0.39909  -0.19229
O     1.56721   0.86124  -1.17616
O     1.54861  -0.53381   0.60817
C     2.86128  -1.00372   0.25936
H    -3.56759  -1.75494  -0.13208
H    -4.22791  -0.48368   0.91376
H    -2.67984  -1.27870   1.35011
H    -3.04461   0.61027  -1.13162
H     3.13265  -1.73491   1.02951
H     2.85105  -1.48305  -0.73018
H     3.58012  -0.17154   0.25621
