45
Generated by autodE on: 2022-06-01. E = -1242.459615 Ha
C    -2.96490   3.80305   1.17065
N    -1.85583   2.88854   0.97663
C    -2.04468   1.65859   0.47329
O    -3.16105   1.22381   0.14994
C    -0.86063   0.78579   0.30503
C     0.43554   0.98815   0.54272
F     1.00960   2.09554   0.98728
C     1.30023  -0.23021   0.26949
C     1.79441  -0.78077   1.56618
N     2.17279  -1.26422   2.55025
C     2.50221   0.11034  -0.62663
C     3.63289   0.73058  -0.07900
C     4.69769   1.09755  -0.90492
C     4.64134   0.84120  -2.27863
C     3.51405   0.21954  -2.82312
C     2.44302  -0.14214  -2.00102
N     0.32640  -1.11450  -0.35383
C     0.58676  -2.54085  -0.36521
C    -1.05389  -0.64342  -0.14231
C    -1.71649  -0.72465  -1.54418
C    -1.34889   0.34482  -2.53115
O    -2.44594  -1.65147  -1.85750
C    -1.72205  -1.41886   1.03214
O    -1.27857  -1.23785   2.17207
N    -2.70483  -2.27539   0.75436
C    -3.33221  -3.07082   1.79128
H    -3.48570   4.00047   0.22069
H    -2.57699   4.74869   1.56690
H    -3.69960   3.39300   1.88140
H    -0.92058   3.18622   1.23367
H     3.68618   0.92956   0.99373
H     5.57560   1.58198  -0.47171
H     5.47712   1.12348  -2.92300
H     3.46513   0.01286  -3.89466
H     1.56043  -0.62537  -2.41914
H    -0.12731  -3.03369  -1.03912
H     0.50611  -3.00614   0.63531
H     1.59963  -2.72201  -0.75259
H    -0.33574   0.73255  -2.37456
H    -1.46493  -0.04572  -3.55077
H    -2.05496   1.18121  -2.39661
H    -2.95769  -2.38575  -0.22768
H    -3.77252  -2.42818   2.56947
H    -2.60444  -3.73991   2.27801
H    -4.12661  -3.67810   1.34097
