11
Generated by autodE on: 2022-06-01. E = -384.740221 Ha
C    -1.53493  -1.80530   0.35784
N    -1.80463  -0.39433   0.16267
C    -0.91402   0.59860  -0.02701
O    -1.24434   1.78213  -0.16792
C     0.49433   0.21680  -0.06428
C     1.68162   0.00134  -0.10774
F     2.93076  -0.23347  -0.15391
H    -0.46510  -2.00402   0.22196
H    -1.82335  -2.12849   1.37070
H    -2.09537  -2.40930  -0.37181
H    -2.77459  -0.08657   0.19279
