45
Generated by autodE on: 2022-06-01. E = -1242.331447 Ha. Imaginary frequency = -317.0 cm-1
C    -4.59868   1.73442   0.26649
N    -3.17348   1.65358   0.51124
C    -2.28587   1.97845  -0.44679
O    -2.59583   2.51099  -1.52370
C    -0.88990   1.68041  -0.14240
C     0.33535   1.77877  -0.02780
F     1.43824   2.45284   0.11366
C     1.26497  -0.32867   0.09440
C     1.27151  -0.18022   1.51819
N     1.40906  -0.00516   2.66199
C     2.62376  -0.26683  -0.51352
C     3.70989  -0.88076   0.13461
C     4.99194  -0.80645  -0.41145
C     5.20649  -0.10888  -1.60376
C     4.13336   0.51681  -2.24747
C     2.85061   0.44278  -1.70686
N     0.21370  -0.94317  -0.54690
C     0.45530  -1.44181  -1.91707
C    -1.04878  -0.90989  -0.05623
C    -2.28746  -1.07986  -0.84822
C    -2.38596  -0.71158  -2.30807
O    -3.29965  -1.43560  -0.24177
C    -1.28064  -1.08352   1.43557
O    -1.90533  -0.27578   2.13324
N    -0.79986  -2.23336   1.93121
C    -0.83883  -2.51411   3.35369
H    -5.13303   1.58707   1.21394
H    -4.86769   2.71928  -0.14066
H    -4.93592   0.96406  -0.44841
H    -2.82648   1.02486   1.24638
H     3.54675  -1.42478   1.06716
H     5.82556  -1.29515   0.09741
H     6.21099  -0.04625  -2.02839
H     4.29743   1.07356  -3.17260
H     2.02249   0.94732  -2.20621
H    -0.27338  -2.22475  -2.13475
H     0.38722  -0.63477  -2.65424
H     1.45762  -1.88011  -1.95048
H    -2.23970  -1.60829  -2.93039
H    -1.66522   0.05301  -2.61674
H    -3.40630  -0.34536  -2.48374
H    -0.26251  -2.84476   1.32436
H    -0.24548  -1.77113   3.91155
H    -1.87237  -2.48337   3.72845
H    -0.42230  -3.51298   3.52911
