18
Generated by autodE on: 2022-06-16. E = -584.930849 Ha
C    -3.39749   1.04571  -0.11595
N    -1.96857   0.81329  -0.11300
C    -1.41916  -0.38340   0.15803
O    -2.05359  -1.40801   0.43847
C     0.07017  -0.42186   0.10403
N     0.59931  -1.59910   0.37789
N     1.02656  -2.61341   0.61496
C     0.98333   0.67554  -0.21405
O     0.61328   1.80790  -0.48791
O     2.26573   0.30324  -0.17208
C     3.24474   1.31116  -0.46972
H    -3.74751   1.34749  -1.11613
H    -3.91284   0.12240   0.17314
H    -3.66680   1.84031   0.59744
H    -1.32967   1.57638  -0.33461
H     3.17088   2.14164   0.24684
H     4.21845   0.81672  -0.37864
H     3.10507   1.69200  -1.49151
