24
Generated by autodE on: 2022-06-16. E = -663.529406 Ha. Imaginary frequency = -484.4 cm-1
C     2.74589  -1.50672   1.96255
N     1.48925  -1.10048   1.36656
C     1.44858  -0.49795   0.16893
O     2.44844  -0.26590  -0.51996
C     0.09688  -0.03265  -0.28608
C    -1.17439  -0.57178   0.23723
O    -1.29398  -1.03793   1.35960
O    -2.18546  -0.41878  -0.61504
C    -3.48694  -0.82372  -0.15880
C     0.00341   2.04798   0.52362
C    -0.01172   2.81092  -0.63595
N     0.04914   1.36882  -2.17835
N     0.08182   0.36907  -1.59097
H     2.54226  -1.96423   2.93820
H     3.41676  -0.64490   2.10775
H     3.27104  -2.24001   1.33001
H     0.60522  -1.25538   1.84885
H    -3.77773  -0.24356   0.72848
H    -3.49109  -1.89600   0.08279
H    -4.17096  -0.61820  -0.98972
H     0.92793   1.93864   1.09482
H    -0.91928   1.88616   1.08616
H     0.90401   3.29325  -0.98729
H    -0.94972   3.23675  -1.00154
