50
Generated by autodE on: 2022-06-08. E = -3815.292283 Ha
C     2.81551  -1.33902   3.08108
N     2.27703  -1.28596   1.73890
C     1.77945  -0.15304   1.22249
O     1.91549   0.94906   1.75601
C     1.12948  -0.32440  -0.18403
C     2.28446   0.02981  -1.13175
C     2.81463   1.33199  -1.11943
C     3.87770   1.67785  -1.95320
C     4.44178   0.72697  -2.81037
C     3.93060  -0.57135  -2.82024
C     2.86256  -0.91871  -1.98547
N     0.70403  -1.72042  -0.35763
C    -0.68670  -1.82289   0.08789
C    -0.67255  -2.05564   1.61140
C    -0.56459  -3.48375   2.04226
O    -0.70080  -1.13491   2.41075
C    -1.35504  -0.52981  -0.39493
Br   -3.06183  -0.24451   0.57959
C    -1.74081  -0.58025  -1.92471
C    -2.50834   0.69682  -2.24363
C    -1.58371   1.66301  -2.22960
C    -0.26797   0.96433  -1.94697
O    -0.47838  -0.32809  -2.54307
C    -0.20189   0.56496  -0.42082
C    -0.31001   1.82379   0.44027
O     0.04488   2.91333  -0.03661
N    -0.80491   1.70099   1.67610
C    -0.73790   2.79499   2.62000
H     2.02144  -1.19753   3.83430
H     3.56985  -0.55237   3.22722
H     3.28539  -2.31724   3.24205
H     2.04006  -2.14257   1.24464
H     2.37763   2.08469  -0.46531
H     4.26603   2.69878  -1.93325
H     5.27502   0.99727  -3.46310
H     4.36287  -1.32828  -3.47875
H     2.50190  -1.94657  -2.01189
H     0.72084  -1.94590  -1.34959
H    -1.14773  -2.70148  -0.38227
H     0.20074  -4.00924   1.45117
H    -0.34267  -3.54881   3.11481
H    -1.52814  -3.97902   1.82948
H    -2.16587  -1.53955  -2.23970
H    -3.58704   0.77699  -2.36297
H    -1.70978   2.73951  -2.32887
H     0.63267   1.43941  -2.33501
H    -0.91598   0.75395   2.04011
H    -1.14373   3.71481   2.17569
H    -1.32847   2.54015   3.50955
H     0.30356   2.99362   2.92898
