30
Generated by autodE on: 2022-07-27. E = -726.002223 Ha
C     1.21756   0.46151   3.24007
N     1.02844   0.23911   1.82081
C    -0.18143   0.37268   1.25043
O    -1.17613   0.75766   1.87520
C    -0.24653   0.13532  -0.22905
N    -1.32768  -0.43583  -0.75207
C    -2.30210  -1.22679  -0.21683
C    -2.11177  -2.04581   0.92633
C    -3.26685  -2.93923   1.32658
O    -1.04372  -2.09228   1.57913
C     0.75167   0.69126  -1.14479
C     1.50851   1.83337  -0.79833
C     2.42949   2.37324  -1.69341
C     2.61989   1.79276  -2.95290
C     1.88111   0.66024  -3.30845
C     0.96319   0.10895  -2.41474
H     0.61186  -0.24209   3.83434
H     0.92490   1.48477   3.52283
H     2.27649   0.31533   3.48549
H     1.80031  -0.11114   1.26360
H    -1.44167  -0.26988  -1.75612
H    -3.17359  -1.35423  -0.85610
H    -2.91190  -3.97826   1.41939
H    -4.11026  -2.90052   0.62348
H    -3.62301  -2.63049   2.32406
H     1.35695   2.31418   0.16848
H     2.99771   3.26176  -1.40881
H     3.34509   2.21785  -3.65034
H     2.03273   0.18954  -4.28252
H     0.43014  -0.80219  -2.69489
