30
Generated by autodE on: 2022-06-08. E = -726.015928 Ha
C    -2.10865   3.66708  -0.25051
N    -1.68566   2.29583  -0.04968
C    -0.41485   1.91273  -0.27145
O     0.45822   2.70685  -0.66914
C    -0.07785   0.48238  -0.05687
N     1.15708   0.19598  -0.43679
C     1.91508  -0.91339  -0.42027
C     3.24760  -0.77059  -0.92203
C     4.14347  -1.98435  -0.89886
O     3.66703   0.31898  -1.36957
C    -0.99387  -0.53596   0.48182
C    -1.20524  -1.74630  -0.20750
C    -2.08194  -2.70525   0.29955
C    -2.75976  -2.47571   1.50203
C    -2.55560  -1.27940   2.19557
C    -1.67932  -0.31577   1.69236
H    -1.49718   4.36039   0.34763
H    -3.15678   3.76259   0.05736
H    -2.02077   3.96568  -1.30797
H    -2.37099   1.60499   0.23580
H     1.65775   1.02295  -0.81298
H     1.51115  -1.84240  -0.02692
H     3.65212  -2.86905  -0.47135
H     5.05059  -1.75448  -0.31629
H     4.47070  -2.21240  -1.92667
H    -0.69116  -1.92831  -1.15324
H    -2.24148  -3.63576  -0.25009
H    -3.44520  -3.22886   1.89728
H    -3.07548  -1.09596   3.13861
H    -1.51204   0.60875   2.24799
