50
Generated by autodE on: 2022-06-08. E = -3815.220395 Ha. Imaginary frequency = -305.5 cm-1
C     2.89275  -1.24864   3.40318
N     2.53111  -1.32359   2.00093
C     2.01459  -0.25026   1.36593
O     2.04844   0.88183   1.84983
C     1.59849  -0.53183  -0.06119
C     2.47656   0.04804  -1.09903
C     2.98043   1.35664  -0.94208
C     3.75068   1.94711  -1.94301
C     4.04728   1.24820  -3.11696
C     3.56775  -0.05553  -3.27729
C     2.79270  -0.64988  -2.28251
N     0.92489  -1.66144  -0.36487
C    -0.21358  -2.17343   0.18549
C    -0.62289  -2.09426   1.58374
C    -1.59180  -3.15632   2.03105
O    -0.24877  -1.20979   2.36036
C    -1.51979  -0.36133  -0.43983
Br   -3.09932  -0.37462   0.64626
C    -1.77023  -0.69844  -1.93582
C    -2.52692   0.50232  -2.53447
C    -1.62595   1.49139  -2.56202
C    -0.33796   0.88223  -1.98704
O    -0.45274  -0.48029  -2.45393
C    -0.58269   0.68316  -0.46949
C    -0.42630   1.84456   0.41720
O    -0.03964   2.93200  -0.05745
N    -0.74508   1.69841   1.72167
C    -0.46042   2.74417   2.67931
H     2.00704  -1.07776   4.03756
H     3.60159  -0.42598   3.57380
H     3.36675  -2.19241   3.69980
H     2.36921  -2.24202   1.60137
H     2.73688   1.91535  -0.04126
H     4.11769   2.96668  -1.80447
H     4.65068   1.71339  -3.89959
H     3.80286  -0.62020  -4.18228
H     2.45517  -1.67614  -2.43890
H     0.95598  -1.88110  -1.36013
H    -0.62167  -3.00077  -0.39506
H    -1.01513  -4.06568   2.27745
H    -2.12648  -2.82050   2.92909
H    -2.30357  -3.42580   1.23823
H    -2.14287  -1.70482  -2.15273
H    -3.58418   0.51379  -2.79558
H    -1.74712   2.53534  -2.84860
H     0.60877   1.33852  -2.28319
H    -0.78383   0.74327   2.07149
H    -0.83752   3.70983   2.31465
H    -0.95902   2.50892   3.62925
H     0.62253   2.84740   2.86706
