53
Generated by autodE on: 2022-06-25. E = -1396.260046 Ha
C     2.95081   1.45915   2.02452
N     2.38863   0.56768   1.03211
C     1.96343   0.95933  -0.17031
O     2.12229   2.08955  -0.64354
C     1.23138  -0.11391  -1.00877
C     2.02597  -0.28069  -2.29706
O     1.16781  -1.36059  -0.28557
C    -0.16542  -1.75717   0.02714
C    -0.16791  -2.54277   1.37127
C     1.15159  -2.76989   2.05132
O    -1.19861  -3.04787   1.77004
C    -0.70690  -2.77168  -1.01541
C     0.31235  -3.52387  -1.81799
O    -1.89645  -3.01220  -1.06881
C    -0.94235  -0.39064   0.00197
O    -2.31824  -0.38275  -0.22046
C    -3.21089  -0.82298   0.80292
C    -0.65147   0.42445   1.28096
O    -0.47959  -0.14911   2.34567
C    -0.70026   1.89681   1.18308
C    -0.70323   2.66657   2.46726
C    -0.65023   2.52672  -0.02652
C    -0.63094   4.01693  -0.12839
C    -0.52561   1.77162  -1.30171
O    -0.61268   2.31714  -2.38781
C    -0.27354   0.26102  -1.23635
O    -0.64851  -0.38646  -2.41920
C    -1.95592  -0.23742  -2.97845
H     2.34521   1.42307   2.94284
H     3.98483   1.17535   2.27403
H     2.94782   2.48169   1.62904
H     2.19048  -0.39499   1.28665
H     3.04663  -0.60383  -2.04533
H     1.56245  -1.01823  -2.95741
H     2.07900   0.68273  -2.82018
H     1.91596  -3.09573   1.33228
H     1.01532  -3.52258   2.83826
H     1.50045  -1.83544   2.51527
H     1.03926  -3.99467  -1.13624
H    -0.19645  -4.29113  -2.41507
H     0.87955  -2.85151  -2.47371
H    -3.04451  -1.87898   1.04601
H    -4.21892  -0.68993   0.38886
H    -3.12046  -0.21418   1.71698
H    -0.77089   1.99550   3.33112
H     0.22007   3.26329   2.55539
H    -1.54499   3.37631   2.49670
H     0.33256   4.40088   0.24868
H    -0.75020   4.34229  -1.16834
H    -1.42061   4.46884   0.49026
H    -2.55653  -1.13268  -2.76270
H    -2.48431   0.64412  -2.59893
H    -1.82772  -0.13743  -4.06651
