27
Generated by autodE on: 2022-06-25. E = -706.731968 Ha
C     4.08687   0.56363   0.59981
N     2.67786   0.29366   0.40201
C     2.14253  -0.93376   0.49681
O     2.76286  -1.97113   0.74560
C     0.65416  -1.01328   0.27220
C    -0.04308  -2.29683   0.40720
O     0.08397   0.11064   0.06324
C    -1.23524   0.42977  -0.18002
C    -1.57793   1.73485   0.35492
C    -0.47801   2.50182   1.06325
O    -2.71108   2.21763   0.24983
C    -2.04038  -0.31631  -1.12633
C    -1.35210  -1.19951  -2.15030
O    -3.26337  -0.14507  -1.20606
H     4.60580  -0.37895   0.80785
H     4.23643   1.25054   1.44726
H     4.52352   1.02310  -0.30035
H     2.06089   1.07190   0.18649
H    -1.10480  -2.13744   0.64791
H     0.01535  -2.89302  -0.51955
H     0.46466  -2.87935   1.18872
H    -0.88868   3.45720   1.41436
H     0.36554   2.69553   0.38064
H    -0.07981   1.93297   1.91740
H    -1.59423  -2.25766  -1.96485
H    -0.26082  -1.08518  -2.19557
H    -1.77902  -0.93560  -3.12949
