26
Generated by autodE on: 2022-06-25. E = -689.456676 Ha
C     2.63852  -2.21859  -0.37249
O     2.24276  -0.95514   0.17846
C     0.96965  -0.52482   0.06573
C     0.74266   0.80694  -0.12991
O     1.79880   1.62420  -0.32064
C     1.80432   2.94809   0.23108
C    -0.64248   1.31201  -0.29592
O    -0.83578   2.47160  -0.64988
C    -1.78604   0.38158  -0.06403
C    -3.16870   0.94603  -0.16690
C    -1.56067  -0.93293   0.17828
C    -2.67863  -1.91003   0.36909
C    -0.16613  -1.44541   0.32057
O     0.04670  -2.60143   0.67467
H     3.69933  -2.11268  -0.63954
H     2.52282  -3.02626   0.36223
H     2.06044  -2.45678  -1.27760
H     2.85859   3.19069   0.42466
H     1.38304   3.67479  -0.47604
H     1.24535   2.98721   1.17773
H    -3.14415   2.02685  -0.34864
H    -3.73820   0.75133   0.75647
H    -3.72621   0.46418  -0.98753
H    -3.34273  -1.91865  -0.51055
H    -3.30330  -1.62407   1.23191
H    -2.29584  -2.92371   0.53568
