53
Generated by autodE on: 2022-06-25. E = -1396.192773 Ha. Imaginary frequency = -248.0 cm-1
C     3.36669   2.45258  -0.28393
N     2.53828   1.26393  -0.25489
C     1.99137   0.76882  -1.37575
O     2.23738   1.21714  -2.50118
C     1.00957  -0.36330  -1.20442
C     0.70465  -1.18382  -2.40715
O     1.05249  -0.87159   0.02524
C     0.14211  -1.72288   0.56471
C     0.18108  -1.73651   2.03942
C     1.28568  -0.96241   2.71859
O    -0.64394  -2.38600   2.68013
C    -0.17669  -3.03091  -0.06716
C     0.94246  -3.77131  -0.76812
O    -1.25510  -3.57513   0.12394
C    -1.79303  -0.29637  -0.35930
O    -2.54507  -1.13503  -1.06404
C    -3.67342  -1.86597  -0.55305
C    -1.98424  -0.05183   1.08582
O    -2.81599  -0.66651   1.75110
C    -1.17325   1.02572   1.72606
C    -1.27172   1.10475   3.21816
C    -0.47149   1.91736   0.98275
C     0.31700   3.03753   1.59410
C    -0.55107   1.88101  -0.50329
O    -0.19299   2.85120  -1.16659
C    -1.06696   0.64815  -1.15585
O    -1.45295   0.62976  -2.45311
C    -1.00600   1.56083  -3.44678
H     3.57150   2.76569   0.74638
H     4.32396   2.26235  -0.79524
H     2.85295   3.26854  -0.81494
H     2.27785   0.86081   0.63804
H     1.54204  -1.87421  -2.59617
H    -0.22032  -1.76366  -2.30539
H     0.62142  -0.52882  -3.27827
H     2.26423  -1.34632   2.38908
H     1.18487  -1.08222   3.80416
H     1.25397   0.10451   2.46226
H     1.88514  -3.21477  -0.81050
H     1.10476  -4.69622  -0.19126
H     0.62953  -4.06468  -1.78087
H    -3.37918  -2.53274   0.26043
H    -4.03341  -2.44747  -1.41128
H    -4.45543  -1.17050  -0.22011
H    -1.41773   0.11019   3.65820
H    -0.38446   1.57308   3.66117
H    -2.14761   1.71457   3.50238
H     1.08168   2.64215   2.28175
H     0.81149   3.63765   0.82245
H    -0.33330   3.70218   2.18548
H    -1.50066   2.53381  -3.32355
H     0.08110   1.69135  -3.42585
H    -1.30974   1.11526  -4.40388
