57
Generated by autodE on: 2022-06-15. E = -2122.803470 Ha
C     1.43232  -0.53401   6.47774
O     1.38396  -1.59006   5.50060
C     0.50714  -2.55848   5.71218
O    -0.28099  -2.59734   6.62410
C     0.48645  -3.56874   4.53170
C     1.71300  -3.45139   3.69645
N     2.59643  -3.33458   2.95489
N    -0.66877  -3.15758   3.77141
C    -1.38858  -4.30060   3.23843
C    -0.98613  -4.33445   1.73386
C    -1.74863  -3.48847   0.76022
O     0.02141  -4.93821   1.41392
C    -2.89756  -4.01413   3.56116
C    -3.18987  -3.45553   4.92639
O    -3.77407  -4.16610   2.73525
C    -0.81063  -5.49934   4.02233
C     0.19268  -5.07043   4.84297
C     0.99419  -5.79241   5.95998
C     0.23438  -5.58058   7.35080
F     0.79461  -4.62246   8.10506
F     0.24668  -6.69258   8.10034
F    -1.04727  -5.25296   7.17479
C     2.44158  -5.22770   6.13817
F     3.18499  -5.43504   5.04510
F     3.05488  -5.83022   7.16609
F     2.50664  -3.90585   6.38448
C     1.19338  -7.33259   5.80380
C     1.85856  -7.89981   4.55038
C     1.04132  -7.74371   3.27131
C    -0.42630  -8.09479   3.52267
C    -1.42919  -6.89625   3.69789
C    -2.22064  -6.87938   2.35967
C    -2.45294  -7.27988   4.78487
F    -3.44314  -6.36948   4.89052
F    -3.04092  -8.45761   4.51173
F    -1.91840  -7.40529   6.01280
H     0.45766  -0.03020   6.53887
H     2.20399   0.16075   6.12903
H     1.70095  -0.94789   7.45975
H    -0.50906  -2.38358   3.12965
H    -2.67640  -4.01239   0.48520
H    -2.04668  -2.52739   1.20580
H    -1.13475  -3.32819  -0.13549
H    -4.22135  -3.71631   5.19690
H    -2.48313  -3.80114   5.68838
H    -3.11021  -2.35789   4.87866
H     0.21841  -7.80371   5.93750
H     1.77878  -7.65179   6.67225
H     2.87894  -7.52239   4.41644
H     1.95971  -8.97857   4.75728
H     1.44812  -8.42918   2.51265
H     1.13823  -6.73461   2.84875
H    -0.49011  -8.77495   4.38234
H    -0.80856  -8.67832   2.67785
H    -2.76514  -7.82750   2.27412
H    -2.94860  -6.07212   2.26177
H    -1.51760  -6.83444   1.52299
