32
Generated by autodE on: 2022-06-15. E = -1363.070591 Ha
C     1.99634  -2.78516  -0.48012
C     1.79395  -1.34232  -0.97956
C     3.16132  -0.67599  -1.16497
F     3.88443  -0.69704  -0.03045
F     3.05112   0.61354  -1.53323
F     3.88741  -1.29686  -2.11081
C     0.98251  -0.57732  -0.03073
C    -0.00171  -0.09202   0.47745
C    -1.37338   0.39574   0.58567
C    -1.37738   1.94463   0.57541
F    -0.88387   2.41401  -0.57858
F    -0.62849   2.45452   1.56275
F    -2.61701   2.43556   0.71143
C    -2.02169  -0.12908   1.88964
F    -1.92014  -1.46444   1.95065
F    -3.32261   0.18082   1.95958
F    -1.42644   0.36484   2.98459
C    -2.16771  -0.16495  -0.64760
C    -1.40163  -0.27106  -1.98092
C    -0.51716  -1.52897  -2.21583
C     1.00501  -1.31003  -2.33080
H     2.48568  -2.79833   0.50313
H     1.02118  -3.28168  -0.39108
H     2.61309  -3.34587  -1.19673
H    -3.05759   0.46777  -0.77675
H    -2.53131  -1.16429  -0.36994
H    -2.18221  -0.26511  -2.75674
H    -0.81315   0.64122  -2.15339
H    -0.73274  -2.29363  -1.45189
H    -0.83112  -1.97774  -3.17016
H     1.18845  -0.34252  -2.82228
H     1.44482  -2.08699  -2.97379
