14
Generated by autodE on: 2022-06-16. E = -212.635897 Ha
C     1.80754  -0.49595  -0.64300
N     0.80396   0.35848  -0.31554
C    -0.41395   0.13206   0.16141
C    -0.79748  -1.28062   0.41900
C    -1.36289   1.26958   0.34907
H     1.73026  -1.53683  -0.33451
H     2.77504  -0.04277  -0.85162
H     1.01242   1.34186  -0.49775
H    -1.82418  -1.35277   0.80314
H    -0.72784  -1.89498  -0.50387
H    -0.11935  -1.76752   1.14979
H    -1.73256   1.33346   1.38967
H    -2.26189   1.17247  -0.29000
H    -0.88701   2.23325   0.10638
