43
Generated by autodE on: 2022-10-22. E = -6312.269572 Ha
C    -3.50903  -0.59783   2.74727
O    -2.67861  -0.32575   1.60575
C    -1.66684   0.50085   1.78717
O    -1.42164   1.08253   2.82106
C    -0.82161   0.69286   0.50434
C    -1.77848   1.34528  -0.53417
O    -2.71915   0.78549  -1.04624
O    -1.50702   2.63550  -0.70401
C    -2.35891   3.34572  -1.61128
N     0.33420   1.53334   0.78430
C     1.60799   0.85621   0.54879
C     2.67916   1.86857   0.12513
C     2.17224   0.17063   1.81941
O     3.08802  -0.62536   1.82551
O     1.60659   0.64245   2.92575
C     2.04471   0.08507   4.17323
C     1.19583  -0.24562  -0.48646
Br    0.83264   0.69610  -2.29149
O     1.97307  -1.31920  -0.70595
C     3.31003  -1.16934  -1.19004
C    -0.17761  -0.68325   0.10818
Br   -1.17256  -1.86412  -1.12408
O     0.01797  -1.31366   1.33142
C     0.55293  -2.63411   1.45823
H    -4.27891  -1.29451   2.39767
H    -3.96913   0.33016   3.11475
H    -2.91069  -1.05699   3.54699
H    -2.00975   4.38464  -1.60271
H    -2.27207   2.92485  -2.62391
H    -3.40707   3.29143  -1.28311
H     0.27885   1.90478   1.73021
H     2.80918   2.59411   0.94244
H     2.34991   2.40715  -0.77072
H     3.64751   1.38968  -0.06490
H     3.11737   0.27201   4.32372
H     1.85239  -0.99748   4.18793
H     1.45508   0.58656   4.94873
H     3.32585  -0.49742  -2.06082
H     3.97214  -0.79420  -0.40070
H     3.63089  -2.17269  -1.49606
H     0.05560  -3.32195   0.76102
H     0.33201  -2.93407   2.49053
H     1.63627  -2.64730   1.29009
