14
Generated by autodE on: 2022-10-22. E = -5454.940910 Ha
C     1.56452  -2.78623  -0.28462
O     0.74614  -1.90601  -1.06989
C     0.42058  -0.73483  -0.50067
Br    1.83397   0.55429  -0.35549
C    -0.84974  -0.47963  -0.12727
Br   -1.40942   1.20488   0.60089
O    -1.81708  -1.39048  -0.31832
C    -2.35084  -2.00576   0.86390
H     1.68650  -3.70427  -0.87245
H     1.07137  -3.01379   0.67367
H     2.55163  -2.33430  -0.09647
H    -3.08562  -2.74600   0.52431
H    -1.54857  -2.50249   1.43207
H    -2.84822  -1.25681   1.50070
