29
Generated by autodE on: 2022-10-26. E = -857.291981 Ha
C    -3.54941  -2.54820   1.33256
O    -2.88962  -1.54843   0.54686
C    -1.57530  -1.39864   0.75396
O    -0.95085  -2.07157   1.57303
C    -0.94505  -0.35645  -0.04426
N     0.38074  -0.22014   0.25077
C     1.41448   0.34682  -0.33146
C     1.40118   0.97568  -1.67456
C     2.65315   0.20467   0.47312
O     2.68795  -0.37665   1.54752
O     3.70758   0.77328  -0.10344
C     4.95608   0.68411   0.60040
C    -1.68505   0.57425  -0.89307
O    -2.70362   0.31893  -1.51588
O    -1.14681   1.80996  -0.86488
C    -1.71712   2.78038  -1.74832
H    -3.11181  -3.54024   1.14792
H    -4.59877  -2.53452   1.01537
H    -3.47559  -2.31267   2.40445
H     0.63948  -0.75317   1.09971
H     2.38652   0.84993  -2.14088
H     0.63387   0.51251  -2.31248
H     1.18350   2.05432  -1.62333
H     5.68804   1.21594  -0.01762
H     4.87139   1.15896   1.58834
H     5.25082  -0.36808   0.72231
H    -1.64906   2.44137  -2.79279
H    -1.13187   3.69723  -1.61121
H    -2.77112   2.96506  -1.49505
