29
Generated by autodE on: 2022-10-22. E = -857.292027 Ha
C    -2.91747   2.97233  -0.54380
O    -2.44953   1.61884  -0.56203
C    -1.22153   1.40424  -0.06306
O    -0.49492   2.31922   0.30562
C    -0.85818  -0.00740   0.02686
N     0.45519  -0.37753   0.07844
C     1.57100   0.14175  -0.38595
C     1.63500   1.31544  -1.28595
C     2.76210  -0.65399   0.00214
O     2.69172  -1.67214   0.67409
O     3.89811  -0.14297  -0.46227
C     5.10502  -0.85099  -0.13997
C    -1.74097  -1.11292   0.38384
O    -1.31020  -2.23556   0.64382
O    -3.04365  -0.81224   0.43469
C    -3.92993  -1.87515   0.80469
H    -3.93883   2.94322  -0.94146
H    -2.92248   3.37021   0.48176
H    -2.28427   3.61151  -1.17657
H     0.58571  -1.29998   0.52691
H     2.57783   1.30660  -1.84420
H     0.78749   1.29008  -1.99063
H     1.55285   2.26380  -0.73079
H     5.07235  -1.86901  -0.55391
H     5.23772  -0.90200   0.95026
H     5.92003  -0.27927  -0.59750
H    -3.85220  -2.71199   0.09522
H    -3.70312  -2.23640   1.81849
H    -4.93915  -1.44787   0.77413
