43
Generated by autodE on: 2022-10-22. E = -6312.204253 Ha. Imaginary frequency = -388.2 cm-1
C    -3.99873  -1.09383   2.81456
O    -3.36216  -0.23521   1.85984
C    -2.06535   0.00929   2.04804
O    -1.44433  -0.41041   3.01649
C    -1.42521   0.82475   0.99970
C    -2.23618   1.56813   0.02261
O    -3.20534   1.13032  -0.57393
O    -1.79882   2.82964  -0.13964
C    -2.42392   3.59976  -1.17224
N    -0.18243   1.25967   1.40680
C     0.91420   1.34144   0.60960
C     0.92155   2.07420  -0.69572
C     2.16329   1.39793   1.45238
O     2.16738   1.16845   2.64803
O     3.24650   1.68292   0.74554
C     4.50278   1.64511   1.43898
C     0.90097  -0.74752   0.06869
Br    2.41570  -0.91320  -1.18659
O     1.15877  -1.23516   1.30807
C     1.50015  -2.62139   1.44736
C    -0.40595  -1.03051  -0.43609
Br   -0.81834  -0.64204  -2.27458
O    -1.08653  -2.03638   0.12165
C    -2.45418  -2.29056  -0.23141
H    -3.47729  -2.05983   2.87253
H    -4.00761  -0.62399   3.80873
H    -5.02364  -1.23618   2.45330
H    -1.89770   4.56120  -1.19276
H    -2.32709   3.09434  -2.14444
H    -3.48928   3.75617  -0.94914
H     0.05579   0.89704   2.33682
H     1.86021   1.88099  -1.22380
H     0.84687   3.15607  -0.50109
H     0.08741   1.78842  -1.34118
H     4.67565   0.64145   1.85294
H     4.51331   2.38558   2.25133
H     5.26612   1.88632   0.69105
H     0.81885  -3.26457   0.87498
H     2.53660  -2.78607   1.11403
H     1.41625  -2.84883   2.51757
H    -3.01017  -1.35362  -0.35005
H    -2.48910  -2.87483  -1.16292
H    -2.87147  -2.88350   0.59101
