16
Generated by autodE on: 2022-06-16. E = -380.197782 Ha
C     3.03441   1.29672  -0.72892
C     1.55956   1.52614  -0.82534
N     0.70563   0.58722  -0.72527
C    -0.07947  -0.36162  -0.71785
C    -0.61733  -0.97442   0.51823
O     0.06256  -1.82042   1.11656
N    -1.87836  -0.64313   0.85807
C    -2.66006   0.39887   0.21947
H     3.46026   1.87511   0.10860
H     3.53706   1.64307  -1.64813
H     3.26124   0.23228  -0.57562
H     1.17250   2.53944  -0.98945
H    -2.24279  -1.09356   1.69409
H    -2.44564   1.39964   0.62976
H    -3.72894   0.18848   0.35687
H    -2.45166   0.41866  -0.86084
