41
Generated by autodE on: 2022-10-21. E = -1143.750327 Ha
C    -2.00548   3.58524   0.71883
O    -1.67774   2.18724   0.78073
C    -1.07851   1.65774  -0.28431
O    -0.79320   2.27947  -1.28212
C    -0.81089   0.16699  -0.03944
C    -2.18677  -0.52308   0.04729
O    -3.17346  -0.12295  -0.53566
O    -2.12748  -1.66627   0.71936
C    -3.27886  -2.52490   0.66949
C     0.04938  -0.07218   1.22361
C     1.05182   1.04776   1.68663
C     1.84559   1.58586   0.50793
C     2.67538   0.57298   0.19345
O     3.54047   0.37808  -0.81105
C     3.62861   1.43561  -1.76573
C     2.40581  -0.53875   1.19458
O     2.02591   0.21250   2.35425
C     1.03737  -1.20864   0.84774
C     0.76696  -1.53543  -0.63286
C     0.10555  -2.85473  -0.78543
N    -0.41591  -3.87775  -0.95482
N    -0.04013  -0.42773  -1.13128
C    -0.66419  -0.60842  -2.43189
H    -2.68306   3.77935  -0.12446
H    -2.49910   3.82081   1.66816
H    -1.09077   4.18403   0.60429
H    -4.14315  -2.02760   1.13135
H    -3.00679  -3.42365   1.23364
H    -3.51113  -2.78366  -0.37287
H    -0.58415  -0.33968   2.07393
H     0.62040   1.77984   2.37675
H     1.67010   2.52266  -0.01316
H     4.35613   1.12029  -2.52374
H     3.97395   2.36394  -1.28155
H     2.64957   1.61633  -2.23740
H     3.23120  -1.23022   1.39618
H     0.90738  -2.09153   1.48244
H     1.70120  -1.60180  -1.21617
H     0.11421  -0.86435  -3.16639
H    -1.13940   0.32699  -2.74868
H    -1.42485  -1.41335  -2.44840
