24
Generated by autodE on: 2022-10-26. E = -721.556361 Ha
C    -1.35377   3.50853   0.92831
O    -1.18859   2.13750   0.55318
C     0.03004   1.77979   0.11312
O     0.93325   2.59414  -0.02871
C     0.13353   0.35038  -0.17522
C    -0.87488  -0.59488   0.33703
O    -1.51584  -0.45365   1.36311
O    -1.06758  -1.63809  -0.49294
C    -1.93453  -2.67983  -0.02948
N     1.18143  -0.08559  -0.95245
C     1.77890   0.81711  -1.97063
C     1.73141  -1.29290  -0.89253
C     1.49955  -2.19997   0.16051
N     1.37272  -2.96476   1.03200
H    -1.20221   4.17075   0.06307
H    -0.64500   3.78432   1.72309
H    -2.38336   3.59785   1.29464
H    -2.96399  -2.30772   0.07480
H    -1.58648  -3.07060   0.93726
H    -1.89325  -3.46722  -0.79119
H     2.18571   0.19149  -2.77200
H     2.58148   1.40167  -1.50965
H     1.00685   1.48183  -2.36659
H     2.42942  -1.58266  -1.67797
