24
Generated by autodE on: 2022-10-21. E = -721.557637 Ha
C    -2.67438  -2.10138  -1.61450
O    -1.78456  -1.02403  -1.28824
C    -0.84460  -1.27878  -0.37301
O    -0.65794  -2.38935   0.09123
C    -0.07242  -0.06209  -0.00534
C    -0.77367   1.13157   0.44265
O    -0.25872   2.21112   0.72000
O    -2.09835   0.92725   0.56714
C    -2.88492   2.04934   0.97999
N     1.29332  -0.12836  -0.00263
C     1.92047  -1.35980  -0.54965
C     2.10550   0.83453   0.43718
C     3.50671   0.73260   0.38246
N     4.67537   0.72907   0.37850
H    -2.11820  -2.94098  -2.05560
H    -3.38597  -1.69400  -2.34185
H    -3.20483  -2.44662  -0.71503
H    -2.57363   2.39827   1.97564
H    -2.79244   2.87634   0.26057
H    -3.92120   1.69301   1.01246
H     2.97504  -1.16166  -0.75619
H     1.82163  -2.16649   0.18346
H     1.41587  -1.63619  -1.48124
H     1.65758   1.73943   0.84123
