17
Generated by autodE on: 2022-10-21. E = -422.092815 Ha
C     2.91043  -0.13726   0.68130
O     1.96861   0.02851  -0.37639
C     0.68795  -0.18761  -0.04992
C     0.06107  -0.53052   1.08884
C    -1.43183  -0.46920   0.69394
C    -1.80254   1.01283   0.43894
C    -1.16023   1.34385  -0.68535
C    -0.41806   0.05207  -1.10081
O    -1.36625  -0.94194  -0.67508
H     3.90328   0.06642   0.26100
H     2.87580  -1.16743   1.07305
H     2.69979   0.56817   1.50218
H     0.45054  -0.70241   2.08891
H    -2.13002  -1.06126   1.29644
H    -2.40662   1.63201   1.10208
H    -1.08885   2.30325  -1.19649
H    -0.12366  -0.05843  -2.15051
