41
Generated by autodE on: 2022-10-21. E = -1143.639224 Ha. Imaginary frequency = -315.6 cm-1
C    -2.66181   3.25654   0.67243
O    -2.32398   1.87017   0.55348
C    -1.37132   1.55724  -0.34253
O    -0.84859   2.40154  -1.05106
C    -1.05053   0.11980  -0.28182
C    -2.09616  -0.74957   0.36945
O    -2.41785  -0.74837   1.53859
O    -2.69377  -1.51675  -0.55181
C    -3.67862  -2.44619  -0.07512
C     0.47663   0.09752   1.54328
C     1.44945   1.30742   1.50498
C     1.97375   1.53260   0.08260
C     2.74981   0.45689  -0.13850
O     3.46747   0.02700  -1.18686
C     3.67082   0.96514  -2.24421
C     2.69758  -0.38335   1.13750
O     2.61369   0.67942   2.12149
C     1.28630  -0.98874   1.27618
C     0.40008  -1.64276  -0.94861
C    -0.18758  -2.72202  -0.24365
N    -0.59579  -3.66047   0.31722
N    -0.21343  -0.46025  -1.20325
C     0.19861   0.23077  -2.44333
H    -3.05506   3.64396  -0.27857
H    -3.43178   3.31135   1.45080
H    -1.78075   3.84433   0.96890
H    -4.51289  -1.90888   0.39749
H    -3.22593  -3.13888   0.64834
H    -4.02763  -2.99332  -0.95819
H    -0.43922   0.09180   2.12766
H     1.12534   2.19369   2.06099
H     1.69794   2.35058  -0.57427
H     4.30975   0.47056  -2.98649
H     4.17408   1.86711  -1.85862
H     2.72064   1.25662  -2.71281
H     3.54362  -1.05659   1.31150
H     1.12198  -2.00996   1.60840
H     1.17641  -1.93571  -1.65677
H     0.91822  -0.40441  -2.96763
H     0.63155   1.20632  -2.23144
H    -0.69209   0.36390  -3.07249
