42
Generated by autodE on: 2022-05-29. E = -921.184090 Ha
C    -0.11043  -1.59113  -2.60591
C    -0.05241  -1.44020  -1.09200
C     1.18460  -2.17972  -0.57249
O    -1.23177  -2.10050  -0.56167
C    -1.56460  -1.57215   0.69284
C    -0.91829  -2.31821   1.79696
N    -0.44629  -2.93780   2.65641
C    -1.19492  -0.05049   0.65365
C    -0.77916   0.42465   1.96526
N    -0.54646   0.81617   3.03324
C    -2.43627   0.78934   0.18841
C    -2.07150   2.28377   0.20629
C    -1.08761   2.40983  -0.99001
C    -1.01663   0.96836  -1.54811
C    -2.46208   0.49891  -1.31718
C    -0.17101   0.06745  -0.58517
C     1.22661   0.62793  -0.34547
C     1.94498   0.43233   0.84423
C     3.25863   0.88916   0.98329
C     3.89613   1.54153  -0.07388
C     3.20390   1.72616  -1.27375
C     1.88863   1.27570  -1.40475
H     0.00315  -2.65250  -2.87159
H     0.71745  -1.03349  -3.06634
H    -1.05717  -1.23182  -3.02621
H     2.09696  -1.80583  -1.05485
H     1.31503  -2.08916   0.51206
H     1.07071  -3.24580  -0.81816
H    -2.64905  -1.68918   0.84129
H    -3.32934   0.52838   0.77050
H    -2.98181   2.87913   0.04651
H    -1.63450   2.60609   1.16138
H    -1.48817   3.07842  -1.76569
H    -0.10899   2.80363  -0.69152
H    -0.66585   0.92590  -2.58304
H    -3.19288   1.13335  -1.83985
H    -2.65328  -0.54840  -1.57165
H     1.49931  -0.10703   1.67704
H     3.78659   0.72197   1.92519
H     4.92361   1.89712   0.03319
H     3.68770   2.22557  -2.11662
H     1.37547   1.43130  -2.35350
