14
Generated by autodE on: 2022-05-29. E = -324.775627 Ha
C    -2.38591   0.69051  -0.99137
C    -1.12906   0.13366  -0.43580
C    -1.01181  -1.27189   0.01001
O    -0.14253   0.94909  -0.37455
C     1.14638   0.83947   0.05719
C     1.70692  -0.26362   0.68539
N     2.27310  -1.14414   1.22807
H    -3.19993   0.59498  -0.25109
H    -2.26309   1.74543  -1.26868
H    -2.69857   0.10789  -1.87590
H    -0.19285  -1.77900  -0.52921
H    -0.77113  -1.32473   1.08571
H    -1.95160  -1.80749  -0.17232
H     1.69298   1.77014  -0.07043
