28
Generated by autodE on: 2022-05-29. E = -596.319140 Ha
N    -0.84241  -2.72915  -1.88690
C    -0.97780  -1.90034  -1.07586
C    -1.20277  -0.91426  -0.08881
C    -0.32122   0.00185   0.41757
C     1.10297   0.18028   0.14033
C     1.90966  -0.87995  -0.32500
C     3.26286  -0.67999  -0.59219
C     3.84159   0.58071  -0.40456
C     3.05648   1.63900   0.06281
C     1.70361   1.44075   0.34098
C    -1.15928   0.95954   1.25187
C    -1.99291   1.80000   0.22781
C    -2.99178   0.75805  -0.35019
C    -2.60125  -0.54846   0.40808
C    -2.24393   0.00997   1.79763
H     1.48071  -1.87358  -0.45837
H     3.87274  -1.51532  -0.94399
H     4.90225   0.73480  -0.61609
H     3.50053   2.62552   0.21462
H     1.10233   2.27613   0.70241
H    -0.59941   1.55577   1.98087
H    -1.35179   2.25689  -0.53877
H    -2.51593   2.60920   0.75796
H    -2.90541   0.63418  -1.43877
H    -4.03341   1.02769  -0.12097
H    -3.34082  -1.35579   0.35013
H    -3.07848   0.54316   2.27725
H    -1.84510  -0.75386   2.48091
