47
Generated by autodE on: 2022-06-18. E = -795.400128 Ha
C     4.36676   2.22425   0.53343
C     3.54270   1.59147  -0.32658
C     3.76281   1.64503  -1.81576
C     2.39842   0.82899   0.18555
C     1.50398   0.15630  -0.56305
C     0.34989  -0.60706  -0.00588
C    -1.01097  -0.22517  -0.64485
C    -1.56540   1.05632  -0.06390
C    -2.28520   1.07883   1.14102
C    -2.72468   2.28722   1.68950
C    -2.44585   3.49713   1.04560
C    -1.72593   3.48754  -0.15335
C    -1.29354   2.27684  -0.70164
N    -1.85943  -1.41434  -0.48975
C    -1.10254  -2.52336   0.14548
C    -1.37522  -2.57136   1.65960
C    -1.54388  -3.86498  -0.44850
C     0.39017  -2.15549  -0.17919
C     0.76940  -2.53791  -1.61916
C     1.40510  -2.79211   0.77086
H     5.22769   2.79990   0.18180
H     4.19860   2.18075   1.61403
H     3.89412   0.63314  -2.23388
H     4.65099   2.24197  -2.06688
H     2.89172   2.08586  -2.32864
H     2.27970   0.82197   1.27578
H     1.60037   0.16314  -1.65313
H     0.28955  -0.40207   1.07344
H    -0.82991  -0.03495  -1.71828
H    -2.50520   0.14404   1.66091
H    -3.28717   2.28283   2.62659
H    -2.79021   4.44146   1.47411
H    -1.50398   4.42641  -0.66695
H    -0.73584   2.27310  -1.64187
H    -2.69322  -1.20491   0.05187
H    -1.00579  -1.67774   2.18223
H    -2.46292  -2.63134   1.82782
H    -0.92042  -3.45678   2.12862
H    -2.58024  -4.08617  -0.14545
H    -0.90887  -4.68969  -0.08713
H    -1.51420  -3.85396  -1.54601
H     1.77774  -2.16830  -1.85808
H     0.07338  -2.12498  -2.36409
H     0.78762  -3.63035  -1.74314
H     2.42739  -2.50559   0.47701
H     1.34491  -3.89198   0.73685
H     1.25990  -2.47225   1.81244
