23
Generated by autodE on: 2022-06-18. E = -351.519866 Ha
C     1.96064   3.21229   0.26184
C     1.69465   1.93245  -0.08068
C     2.69407   1.10098  -0.84347
C     0.41614   1.32927   0.28923
C     0.02887   0.05959   0.00757
C    -1.25050  -0.49688   0.39548
C    -1.67012  -1.75952   0.13249
C    -0.82082  -2.75746  -0.61977
C    -3.01984  -2.23919   0.58029
H     2.90889   3.68895  -0.00177
H     1.23239   3.81267   0.81582
H     2.27221   0.75186  -1.80064
H     2.97500   0.19797  -0.27631
H     3.60804   1.67299  -1.05706
H    -0.27609   1.97546   0.84239
H     0.71273  -0.59215  -0.54393
H    -1.92415   0.16972   0.94682
H    -0.57303  -2.40011  -1.63319
H    -1.33959  -3.72128  -0.72468
H     0.13646  -2.94770  -0.10655
H    -3.58113  -1.46202   1.11982
H    -3.62325  -2.57097  -0.28411
H    -2.92272  -3.12193   1.23804
