24
Generated by autodE on: 2022-06-18. E = -443.816180 Ha
C    -3.27074   0.32950  -1.57577
C    -2.86598  -0.16060  -0.23206
C    -3.86639  -0.63441   0.76715
N    -1.57853  -0.17420   0.07420
C    -0.49309   0.19851  -0.66668
C     0.83972   0.13137  -0.16288
C     1.92422   0.51942  -1.00534
C     3.24366   0.47249  -0.56867
C     3.56186   0.03815   0.72801
C     2.51325  -0.34623   1.57521
C     1.18673  -0.30232   1.15120
H    -4.36189   0.29842  -1.69411
H    -2.81378  -0.27736  -2.38181
H    -2.92846   1.36921  -1.74486
H    -3.38622  -0.95416   1.70491
H    -4.45276  -1.48563   0.37481
H    -4.59690   0.15938   1.00871
H    -1.36856  -0.52075   1.01218
H    -0.68450   0.55410  -1.67647
H     1.70172   0.86027  -2.02067
H     4.04201   0.77957  -1.25074
H     4.59891   0.00148   1.06841
H     2.73259  -0.68640   2.59158
H     0.40769  -0.60747   1.85588
