24
Generated by autodE on: 2022-07-27. E = -443.816186 Ha
C    -0.40897  -3.97121  -0.26440
C    -0.05698  -2.71108  -0.97941
C     0.34910  -2.70879  -2.40926
N    -0.10578  -1.55647  -0.33416
C     0.16069  -0.29161  -0.77622
C     0.07833   0.85659   0.06626
C    -0.26762   0.82846   1.45033
C    -0.32730   1.99665   2.20787
C    -0.04867   3.24814   1.64158
C     0.29590   3.29995   0.28144
C     0.35815   2.14252  -0.48648
H    -1.25693  -4.48557  -0.75294
H     0.43423  -4.68611  -0.27497
H    -0.68367  -3.78179   0.78464
H    -0.33772  -2.09448  -3.02384
H     1.35565  -2.26581  -2.54099
H     0.36103  -3.72852  -2.81622
H    -0.38794  -1.62880   0.64493
H     0.44460  -0.18731  -1.82093
H    -0.49203  -0.11951   1.94788
H    -0.59705   1.92694   3.26581
H    -0.09737   4.15852   2.24287
H     0.51892   4.26300  -0.18730
H     0.62788   2.20903  -1.54447
