47
Generated by autodE on: 2022-06-18. E = -795.334216 Ha. Imaginary frequency = -317.5 cm-1
C     3.18401   2.95645  -1.64959
C     2.84637   1.64491  -1.71503
C     3.21160   0.82008  -2.92585
C     2.11982   1.00294  -0.62970
C     1.71316  -0.30384  -0.60586
C     0.95748  -0.90568   0.45042
C    -1.36297  -0.02434  -0.28114
C    -1.47236   1.18014   0.49296
C    -1.94969   1.22480   1.82798
C    -1.96262   2.42067   2.54081
C    -1.49034   3.60781   1.96133
C    -1.00742   3.57942   0.64778
C    -1.00205   2.38953  -0.07866
N    -1.84753  -1.22045   0.09672
C    -1.37909  -2.41379  -0.38388
C    -2.08876  -3.63339   0.12944
C    -0.98629  -2.44149  -1.83438
C     0.64563  -2.27169   0.59759
C     1.39698  -3.32727  -0.18363
C     0.25589  -2.70789   1.99571
H     3.72650   3.44842  -2.46164
H     2.91867   3.56595  -0.77974
H     2.31259   0.40402  -3.41043
H     3.75626   1.42001  -3.66884
H     3.84267  -0.04032  -2.64731
H     1.87731   1.63784   0.23014
H     1.96660  -0.93805  -1.46109
H     0.72349  -0.25153   1.29512
H    -0.98614   0.05174  -1.29714
H    -2.30292   0.31450   2.31922
H    -2.33795   2.42820   3.56743
H    -1.49827   4.54074   2.52931
H    -0.63373   4.49527   0.18248
H    -0.62995   2.37865  -1.10529
H    -2.27558  -1.27242   1.02019
H    -2.43845  -3.49827   1.16402
H    -2.96762  -3.87679  -0.49694
H    -1.42212  -4.50850   0.10028
H    -0.17246  -1.74365  -2.07353
H    -1.85377  -2.16873  -2.46550
H    -0.66852  -3.45118  -2.12369
H     2.34857  -3.56615   0.32733
H     1.64670  -3.01508  -1.20590
H     0.82622  -4.26703  -0.24583
H    -0.19132  -3.71227   2.01142
H    -0.45568  -2.00442   2.45631
H     1.14726  -2.74467   2.64979
