53
Generated by autodE on: 2022-06-12. E = -1097.676921 Ha
C     2.45697  -3.82436   2.75000
N     1.23692  -4.51636   3.11654
C     0.06965  -4.25118   2.50530
O     0.00951  -3.46797   1.54667
C    -1.15514  -5.04098   2.96112
C    -1.03641  -5.60368   4.40741
C    -2.31690  -6.18304   5.00985
C    -2.85919  -7.44474   4.33243
C    -3.12534  -7.38410   2.82339
C    -4.09917  -6.30387   2.28453
C    -5.48373  -6.56823   2.91342
C    -4.18643  -6.51443   0.75499
C    -3.67881  -4.84988   2.53272
C    -2.45922  -4.31090   2.73278
C    -2.60682  -2.79934   2.92408
C    -2.09598  -1.96292   1.69443
C    -1.27948  -0.72660   1.92404
O    -2.53641  -2.25290   0.59868
C    -2.00140  -2.40919   4.28002
C    -2.95263  -2.25504   5.42741
O    -0.79348  -2.29659   4.40814
O    -4.00521  -2.56972   2.94510
C    -4.73407  -3.75882   2.59138
C    -5.54505  -3.48428   1.32857
H     2.40930  -2.75426   3.01336
H     2.63824  -3.89866   1.66764
H     3.30014  -4.28076   3.28314
H     1.24443  -5.10796   3.93851
H    -1.14157  -5.89069   2.26648
H    -0.26157  -6.38895   4.40564
H    -0.67641  -4.80240   5.06984
H    -3.09446  -5.40474   5.04037
H    -2.10269  -6.42927   6.06330
H    -3.78494  -7.74283   4.85218
H    -2.14324  -8.26812   4.50185
H    -2.17720  -7.33712   2.27230
H    -3.56575  -8.35144   2.53000
H    -5.74705  -7.62942   2.78363
H    -6.27788  -5.97408   2.44146
H    -5.49059  -6.34811   3.99133
H    -4.51331  -7.54369   0.53580
H    -4.89918  -5.82689   0.28172
H    -3.20150  -6.36012   0.28774
H    -1.84250  -0.05351   2.59345
H    -1.09483  -0.22571   0.96490
H    -0.33390  -0.96306   2.42538
H    -3.62553  -1.40400   5.23923
H    -2.39044  -2.09764   6.35671
H    -3.59062  -3.14886   5.50861
H    -5.43175  -3.96594   3.42172
H    -6.12338  -2.55906   1.47572
H    -4.88242  -3.35078   0.46304
H    -6.25571  -4.29473   1.11878
