33
Generated by autodE on: 2022-06-12. E = -598.940672 Ha
C     2.66802  -1.83626  -3.35407
N     2.20557  -1.89573  -1.98087
C     1.25867  -1.06378  -1.51278
O     0.70288  -0.22469  -2.23170
C     0.96097  -1.19084  -0.01511
C    -0.44607  -0.94002   0.28312
C    -1.41734  -0.31299   0.65288
C    -2.22016   0.77797   1.22270
C    -3.47240   1.07627   0.38331
C    -2.63272   0.43687   2.66663
C    -1.26254   2.01303   1.19791
C     0.18046   1.80547   1.70621
C     1.26220   1.33379   0.69160
C     1.77351  -0.11947   0.78547
H     3.11257  -0.85495  -3.58532
H     3.42702  -2.61282  -3.50785
H     1.83962  -2.00616  -4.05966
H     2.62714  -2.56563  -1.34662
H     1.28289  -2.18858   0.32042
H    -3.99504   1.95837   0.78603
H    -4.17093   0.22528   0.40225
H    -3.20592   1.28162  -0.66479
H    -1.75427   0.25533   3.30364
H    -3.26319  -0.46530   2.69052
H    -3.20778   1.27146   3.09811
H    -1.74852   2.79990   1.79962
H    -1.22210   2.39322   0.16336
H     0.17693   1.13624   2.58333
H     0.50991   2.78282   2.09332
H     0.92446   1.53559  -0.33762
H     2.14620   1.97365   0.84137
H     2.81584  -0.16728   0.43118
H     1.78644  -0.43663   1.84064
