20
Generated by autodE on: 2022-06-12. E = -498.620384 Ha
C     2.86381  -0.68343  -1.80082
C     1.43731  -0.69208  -1.45998
O     1.06345  -0.09058  -0.40914
C    -0.18948   0.07724   0.17475
C    -0.10410   0.85321   1.38708
C     1.26662   1.34858   1.81074
O    -1.09838   1.12381   2.07908
C    -1.34681  -0.49197  -0.44683
C    -2.69751  -0.29720   0.20373
O    -1.27045  -1.14290  -1.51081
H     2.98832  -0.25185  -2.81023
H     3.45925  -0.12472  -1.06731
H     3.22016  -1.72681  -1.87357
H     0.67393  -1.19047  -2.06318
H     1.96119   0.50936   1.97095
H     1.15706   1.91696   2.74338
H     1.71184   1.99367   1.03728
H    -2.71673  -0.72726   1.21600
H    -3.45051  -0.79098  -0.42583
H    -2.93841   0.77031   0.31163
