20
Generated by autodE on: 2022-07-26. E = -498.618411 Ha
C    -0.63707  -1.80519  -1.92194
C    -1.54102  -1.34159  -0.87532
O    -1.22328  -0.62570   0.12476
C    -0.00572   0.08175   0.23443
C     0.30880   0.93747  -0.87004
C     1.53003   1.82323  -0.77230
O    -0.42017   0.98915  -1.88151
C     0.54664   0.06015   1.55913
C    -0.17266  -0.78295   2.59475
O     1.58264   0.67546   1.86579
H    -0.95938  -2.80321  -2.25307
H     0.40584  -1.79917  -1.56627
H    -0.69002  -1.11617  -2.78444
H    -2.58487  -1.67612  -0.83473
H     2.43954   1.22873  -0.60292
H     1.61970   2.38739  -1.71071
H     1.44649   2.52027   0.07468
H    -1.23104  -0.49070   2.68081
H    -0.15347  -1.84815   2.31283
H     0.32687  -0.65457   3.56386
