53
Generated by autodE on: 2022-06-12. E = -1097.562459 Ha. Imaginary frequency = -309.4 cm-1
C     1.71055  -2.46317   3.13991
N     0.91172  -3.66493   3.28768
C    -0.00154  -4.04037   2.38202
O    -0.17302  -3.45716   1.30623
C    -0.78886  -5.32748   2.68783
C    -0.57988  -5.96390   4.08379
C    -1.26918  -7.31980   4.30610
C    -2.78920  -7.35142   4.59574
C    -3.74921  -7.61101   3.41432
C    -4.50502  -6.39360   2.81158
C    -5.47647  -5.79995   3.84493
C    -5.27888  -6.86307   1.56900
C    -3.44413  -5.39337   2.42676
C    -2.22370  -5.20268   2.48014
C    -2.94306  -2.10080   2.77732
C    -2.62685  -1.07978   1.81289
C    -1.36731  -0.26284   1.98235
O    -3.38890  -0.83398   0.85635
C    -2.43196  -2.22364   4.11411
C    -3.22898  -3.04562   5.11001
O    -1.36432  -1.69547   4.48806
O    -4.13100  -2.81478   2.56302
C    -4.27867  -3.69282   1.59614
C    -3.62298  -3.61580   0.26322
H     1.16527  -1.57601   3.49760
H     1.96727  -2.31585   2.08310
H     2.63555  -2.57003   3.72175
H     0.92454  -4.12967   4.18831
H    -0.41629  -6.03849   1.92661
H     0.50357  -6.11982   4.20474
H    -0.90221  -5.24686   4.85638
H    -1.03905  -7.98667   3.45664
H    -0.76420  -7.76570   5.17737
H    -3.07883  -6.43473   5.13508
H    -2.94964  -8.16856   5.31568
H    -3.19708  -8.10561   2.59830
H    -4.52951  -8.32139   3.73260
H    -4.95505  -5.48416   4.75840
H    -6.02178  -4.93176   3.44799
H    -6.21859  -6.56588   4.11849
H    -5.88013  -6.05508   1.12635
H    -4.59376  -7.24874   0.79905
H    -5.96865  -7.67265   1.85364
H    -0.48212  -0.89896   1.83406
H    -1.37246   0.53623   1.22804
H    -1.28997   0.16235   2.99209
H    -2.87274  -2.80156   6.11989
H    -3.06581  -4.11867   4.93086
H    -4.31010  -2.86364   5.03593
H    -5.29404  -4.09834   1.61503
H    -4.10077  -2.79510  -0.29537
H    -2.54780  -3.41466   0.33349
H    -3.79562  -4.56173  -0.26719
