18
Generated by autodE on: 2022-06-16. E = -365.135553 Ha
C    -3.68169  -0.66487  -0.08010
N    -2.35513  -0.62443  -0.08013
C    -1.49858   0.40355   0.07364
C    -0.07298   0.25488   0.03999
C     0.74175   1.40554   0.22677
C     2.13131   1.32530   0.20536
C     2.77686   0.09822  -0.00277
C     1.99293  -1.04815  -0.18992
C     0.60141  -0.97940  -0.17076
H    -4.24200   0.25937   0.06210
H    -4.16532  -1.62821  -0.22203
H    -1.91209  -1.53622  -0.21941
H    -1.94885   1.38490   0.23039
H     0.25636   2.37160   0.39074
H     2.72171   2.23386   0.35339
H     3.86714   0.03644  -0.01926
H     2.47442  -2.01603  -0.35507
H     0.03524  -1.90222  -0.32534
