14
Generated by autodE on: 2022-06-17. E = -270.683215 Ha
C    -0.30865   2.32520   0.13167
C    -0.25193   0.83567   0.00455
C    -1.51530   0.15992  -0.44603
C     0.89698   0.16338   0.28946
C     1.08282  -1.27727   0.20514
O     0.24159  -2.10782  -0.13083
H    -1.10689   2.61121   0.83907
H     0.64316   2.75936   0.46738
H    -0.58916   2.77369  -0.83771
H    -1.34489  -0.41985  -1.36694
H    -2.31402   0.89249  -0.62787
H    -1.86235  -0.56624   0.30619
H     1.77509   0.73043   0.61204
H     2.10912  -1.62055   0.48245
