35
Generated by autodE on: 2022-06-17. E = -787.311910 Ha. Imaginary frequency = -402.8 cm-1
C    -3.10616   2.40102  -0.26725
C    -2.73868   1.47901   0.85544
O    -3.47495   1.20343   1.79588
C    -1.47577   0.76072   0.71414
N    -0.30144   0.82586   1.00218
C     0.79099   0.05499   1.05093
C     1.97592   0.38040   0.26901
C     3.19250  -0.26343   0.56819
C     4.32022  -0.04790  -0.22419
C     4.25438   0.81865  -1.32093
C     3.05073   1.46950  -1.62079
C     1.91900   1.25219  -0.83700
C    -0.19442  -1.83679   0.08522
C     0.30340  -2.80551   1.13285
C     0.56090  -1.87420  -1.22316
C    -1.54550  -1.45709   0.12515
C    -2.32020  -1.04535  -1.02862
O    -3.55191  -0.97152  -1.05649
H    -3.54427   1.78209  -1.07065
H    -2.22613   2.91732  -0.67784
H    -3.86226   3.11968   0.07801
H     0.94266  -0.45022   2.00854
H     3.24252  -0.93805   1.42604
H     5.25736  -0.55503   0.01715
H     5.13898   0.99053  -1.93838
H     2.99593   2.14997  -2.47385
H     0.98114   1.75817  -1.07684
H    -0.21020  -2.66883   2.09620
H     1.38853  -2.71143   1.29298
H     0.11942  -3.84275   0.79682
H     1.64135  -1.96787  -1.04699
H     0.24884  -2.75332  -1.81439
H     0.39901  -0.97952  -1.83945
H    -2.14078  -1.71876   1.00728
H    -1.73679  -0.78414  -1.94027
