49
Generated by autodE on: 2022-06-21. E = -946.685476 Ha
C     1.83730   1.04854  -2.97733
C     2.73715   1.49727  -1.85967
C     3.89638   2.35211  -2.28986
C     2.54838   1.18821  -0.55418
C     1.46133   0.39969  -0.00014
C     1.27282   0.19338   1.31643
C     0.09759  -0.51619   1.95973
C     0.57859  -1.44347   3.08676
C    -0.91148   0.53458   2.50009
C    -1.92311   0.69618   1.34538
C    -1.65741   1.89045   0.43747
C    -1.44842   1.75299  -0.94107
C    -1.17866   2.86924  -1.73960
C    -1.12328   4.14508  -1.17280
C    -1.34923   4.29597   0.20012
C    -1.61648   3.17893   0.99473
N    -1.87145  -0.57632   0.61349
C    -0.80215  -1.21496   0.92620
C    -0.49473  -2.53157   0.32000
C    -1.54484  -3.34042  -0.15440
C    -1.28355  -4.57766  -0.74161
C     0.03491  -5.02899  -0.87244
C     1.08665  -4.23370  -0.40890
C     0.82597  -2.99772   0.18747
H     1.41809   1.92386  -3.50366
H     2.41578   0.48531  -3.73082
H     1.00175   0.41920  -2.64635
H     3.54053   3.26396  -2.80250
H     4.52854   1.81768  -3.02163
H     4.52717   2.65498  -1.44109
H     3.26802   1.58482   0.17216
H     0.74448  -0.02694  -0.70480
H     1.98501   0.62400   2.03176
H     1.32751  -2.16879   2.73984
H    -0.26682  -1.99948   3.52093
H     1.03778  -0.84194   3.88721
H    -1.42746   0.12182   3.38022
H    -0.42577   1.47257   2.79856
H    -2.94148   0.82111   1.74887
H    -1.48073   0.76081  -1.39039
H    -1.00602   2.73672  -2.81039
H    -0.90686   5.01690  -1.79486
H    -1.31507   5.28908   0.65515
H    -1.78963   3.30848   2.06627
H    -2.57115  -2.98654  -0.04993
H    -2.11181  -5.19514  -1.09733
H     0.24064  -5.99798  -1.33346
H     2.11914  -4.57544  -0.51220
H     1.65800  -2.38256   0.52802
