26
Generated by autodE on: 2022-06-21. E = -595.074076 Ha
C     1.13046   0.33365  -1.30277
N     0.17889   1.00458  -0.91210
C    -0.91493   1.59734  -0.59524
C    -2.12678   0.86964  -0.22948
C    -2.16575  -0.53951  -0.17403
C    -3.34526  -1.19984   0.16711
C    -4.50526  -0.47346   0.46541
C    -4.47477   0.92502   0.41722
C    -3.29893   1.59206   0.07287
C     2.21802  -0.17483  -0.45891
C     3.29437  -0.84469  -1.06671
C     4.34026  -1.34898  -0.29151
C     4.31453  -1.19481   1.09814
C     3.24398  -0.53331   1.71531
C     2.20249  -0.02329   0.94357
H    -0.93493   2.69257  -0.62015
H    -1.26319  -1.11330  -0.39737
H    -3.36044  -2.29193   0.20485
H    -5.42625  -0.99508   0.73569
H    -5.37478   1.50002   0.64873
H    -3.27825   2.68414   0.03205
H     3.29693  -0.96236  -2.15245
H     5.17508  -1.86565  -0.77013
H     5.13090  -1.59235   1.70591
H     3.22702  -0.41614   2.80140
H     1.36545   0.49490   1.41811
