23
Generated by autodE on: 2022-06-21. E = -351.519865 Ha
C     3.48749   1.42936  -0.16875
C     2.52073   0.50554   0.02664
C     2.85555  -0.90171   0.45048
C     1.11800   0.86403  -0.17152
C     0.05812   0.03261  -0.00740
C    -1.31858   0.43084  -0.21445
C    -2.39965  -0.37293  -0.05695
C    -2.28175  -1.81838   0.36712
C    -3.79006   0.13828  -0.29697
H     3.24065   2.45029  -0.47607
H     4.54473   1.18838  -0.02717
H     2.37367  -1.15260   1.41013
H     3.94055  -1.03657   0.56313
H     2.48951  -1.63633  -0.28595
H     0.92682   1.89918  -0.47924
H     0.23920  -1.00152   0.29969
H    -1.48432   1.46959  -0.52368
H    -1.79563  -1.91613   1.35210
H    -1.67802  -2.40499  -0.34519
H    -3.27073  -2.29406   0.43587
H    -4.40809   0.03181   0.61304
H    -4.29638  -0.45763  -1.07789
H    -3.79908   1.19475  -0.60323
