14
Generated by autodE on: 2022-06-17. E = -270.683218 Ha
C    -1.47478  -0.48165   0.34001
C    -0.52168   0.67067   0.20100
C    -1.08237   2.02877   0.48273
C     0.78362   0.52489  -0.15706
C     1.44946  -0.73427  -0.45484
O     0.94782  -1.85589  -0.42513
H    -1.53590  -1.05915  -0.59571
H    -2.48092  -0.13372   0.61254
H    -1.12384  -1.18956   1.10800
H    -1.93471   2.22961  -0.19004
H    -1.49250   2.05964   1.50759
H    -0.33725   2.82811   0.36861
H     1.41248   1.41646  -0.23611
H     2.52552  -0.62451  -0.73409
