17
Generated by autodE on: 2022-10-20. E = -472.479081 Ha
C     2.62753  -1.36466   0.95246
N     2.66589   0.08036   0.81380
C     1.74856   0.81259   0.16158
O     1.72597   2.04367   0.09487
C     0.73715   0.04768  -0.60112
N    -0.41880  -0.22376  -0.39431
C    -1.64599  -0.60828  -0.24808
C    -1.99037  -1.98122   0.26563
C    -2.67570   0.31013  -0.59424
N    -3.55010   1.03289  -0.86680
H     2.22153  -1.82161   0.03754
H     2.00931  -1.68596   1.80631
H     3.64826  -1.74212   1.09520
H     3.35480   0.61079   1.34291
H    -1.07080  -2.52942   0.51045
H    -2.61458  -1.91164   1.17050
H    -2.55302  -2.54916  -0.49297
