25
Generated by autodE on: 2022-10-20. E = -1124.017698 Ha. Imaginary frequency = -354.3 cm-1
C     1.78870  -0.46673  -2.90416
N     2.67997  -0.83795  -1.82056
C     2.33336  -1.01502  -0.53845
O     3.10635  -1.26821   0.38862
C     0.90651  -0.81065  -0.21577
N    -0.05098  -1.44538   0.14238
C    -1.32803  -1.46123   0.46519
C    -2.38519  -1.63104  -0.59097
C    -1.65503  -1.64530   1.83763
N    -1.96544  -1.76443   2.95591
C    -1.20577   1.12768   0.42009
O    -2.43909   1.21340   0.85026
C    -2.98062   2.55486   0.87481
C    -0.06560   1.32928  -0.00359
Cl    1.24870   2.26228  -0.51506
H     2.04765   0.52538  -3.30359
H     1.84278  -1.20258  -3.72011
H     0.75096  -0.43356  -2.54644
H     3.67594  -0.91991  -2.01708
H    -2.02824  -1.21223  -1.54228
H    -3.29548  -1.09742  -0.28217
H    -2.64202  -2.69315  -0.74110
H    -4.00621   2.46351   1.25255
H    -2.98341   2.97607  -0.14176
H    -2.38099   3.18882   1.54514
