15
Generated by autodE on: 2022-07-27. E = -495.114598 Ha
C    -1.23726  -1.36105  -1.49948
C    -0.89409  -0.94628  -0.11224
O    -1.45468  -1.28696   0.90678
C     0.25047   0.04614   0.03100
O     1.44374  -0.36850   0.04018
O     1.66710  -1.68837  -0.11722
C     0.00239   1.51259   0.20483
C     1.17799   2.40953   0.41062
O    -1.16105   1.87367   0.15648
H    -1.98458  -2.16570  -1.48402
H    -0.32352  -1.67679  -2.02693
H    -1.63815  -0.47848  -2.02808
H     0.83327   3.44671   0.50300
H     1.72362   2.10571   1.31875
H     1.87746   2.31293  -0.43520
