38
Generated by autodE on: 2022-06-17. E = -846.641962 Ha. Imaginary frequency = -45.2 cm-1
C    -4.22226  -0.66408  -0.87735
C    -3.12253  -0.92889   0.11424
O    -3.04412  -1.99838   0.69612
C    -2.16288   0.18615   0.44751
C    -2.42675   1.64691   0.18105
C    -1.43408   2.62598   0.74028
O    -3.39158   1.99407  -0.47743
C    -1.00413  -0.46737  -1.72634
C     0.19575  -0.90878  -1.22279
C     0.47597  -2.38359  -1.10198
C     1.21358   0.06672  -0.90386
C     2.46663  -0.21935  -0.44880
C     3.45129   0.78921  -0.16043
C     4.71575   0.57868   0.29941
C     5.63519   1.73574   0.55501
C     5.30056  -0.77172   0.58811
O    -0.63739  -1.15401   1.51498
O    -1.17121   0.04838   1.26970
H    -4.65561  -1.63129  -1.16455
H    -3.87957  -0.10996  -1.75855
H    -4.99786  -0.05064  -0.39179
H    -1.73405   3.63944   0.44675
H    -1.39337   2.54681   1.83757
H    -0.42410   2.40311   0.36282
H    -1.14240   0.58162  -1.99623
H    -1.74676  -1.18096  -2.08652
H     1.01961  -2.62944  -0.18039
H    -0.45914  -2.95991  -1.11978
H     1.10031  -2.71628  -1.94918
H     0.94283   1.11662  -1.06088
H     2.74177  -1.26555  -0.29215
H     3.13983   1.82597  -0.33154
H     6.55463   1.63983  -0.04966
H     5.16325   2.70210   0.32683
H     5.96408   1.74317   1.60948
H     6.20535  -0.92956  -0.02466
H     4.61057  -1.60480   0.40546
H     5.63241  -0.82108   1.63992
