47
Generated by autodE on: 2022-06-18. E = -795.399510 Ha
C    -0.51695   2.82556   0.33622
C     0.03190   1.73569   0.89456
C     0.88264   1.82400   2.13362
C    -0.13721   0.34815   0.32032
C     0.93816  -0.04697  -0.73073
C     2.30039  -0.32454  -0.14471
C     2.51727  -1.44076   0.68005
C     3.76239  -1.65895   1.27318
C     4.81367  -0.76105   1.05362
C     4.60978   0.35134   0.23223
C     3.36242   0.56351  -0.36392
N     0.36519  -1.19192  -1.46088
C    -1.09722  -1.28403  -1.19148
C    -1.39359  -2.50829  -0.31798
C    -1.88964  -1.38582  -2.49599
C    -1.42211   0.06026  -0.46759
C    -2.66240   0.06292   0.36857
C    -3.82089   0.70043   0.11519
C    -4.08445   1.53896  -1.10712
C    -4.97789   0.61723   1.07616
H    -1.14938   2.77015  -0.55341
H    -0.35027   3.82009   0.76161
H     1.00545   2.86210   2.47628
H     1.88204   1.39226   1.95990
H     0.43034   1.23693   2.95197
H    -0.07002  -0.37541   1.15014
H     1.03657   0.81495  -1.41312
H     1.70030  -2.14256   0.86757
H     3.91299  -2.53130   1.91398
H     5.78733  -0.93019   1.51980
H     5.42497   1.05664   0.05247
H     3.20379   1.43604  -1.00280
H     0.81314  -2.04947  -1.14809
H    -2.47532  -2.65117  -0.17605
H    -0.92470  -2.42516   0.67443
H    -0.99779  -3.41518  -0.80430
H    -1.63090  -0.55689  -3.17279
H    -1.67344  -2.33337  -3.01575
H    -2.97327  -1.34455  -2.29956
H    -1.50401   0.81972  -1.25747
H    -2.59836  -0.51505   1.29814
H    -3.23588   1.57857  -1.80195
H    -4.95727   1.14830  -1.65913
H    -4.34201   2.57277  -0.81652
H    -4.74196  -0.00119   1.95508
H    -5.87078   0.19357   0.58278
H    -5.26968   1.62317   1.42749
