23
Generated by autodE on: 2022-06-18. E = -351.521383 Ha
C     3.38769   1.51542   0.72343
C     2.49379   0.55348   0.40494
C     2.93094  -0.86338   0.13354
C     1.07156   0.87898   0.31865
C     0.07742   0.00886   0.00977
C    -1.31940   0.38666  -0.06148
C    -2.36988  -0.41863  -0.36086
C    -3.77037   0.12470  -0.39426
C    -2.25361  -1.88256  -0.67772
H     4.45742   1.29982   0.79489
H     3.06728   2.54326   0.91981
H     4.02050  -0.96969   0.23189
H     2.44977  -1.56842   0.83166
H     2.64214  -1.18071  -0.88229
H     0.80619   1.92287   0.52522
H     0.33330  -1.03380  -0.19747
H    -1.53570   1.44044   0.15230
H    -4.41596  -0.41277   0.32356
H    -4.22667  -0.02951  -1.38865
H    -3.80582   1.19828  -0.15785
H    -1.22347  -2.26013  -0.64954
H    -2.66892  -2.09065  -1.67964
H    -2.85685  -2.47599   0.03200
