23
Generated by autodE on: 2022-06-20. E = -351.521381 Ha
C    -3.42231  -0.61878  -1.48375
C    -2.51418  -0.23018  -0.56179
C    -2.94118   0.33094   0.77060
C    -1.08608  -0.35190  -0.84803
C    -0.07794  -0.00100  -0.01053
C     1.32410  -0.14435  -0.34633
C     2.38822   0.17669   0.43225
C     2.28460   0.75107   1.81662
C     3.79231  -0.03262  -0.06022
H    -3.10896  -1.02590  -2.45010
H    -4.49677  -0.53945  -1.29622
H    -2.55056  -0.27914   1.60199
H    -4.03647   0.36809   0.85455
H    -2.54758   1.35055   0.91702
H    -0.82866  -0.76536  -1.83071
H    -0.32586   0.41138   0.97135
H     1.53239  -0.55875  -1.34023
H     2.79209   0.09116   2.54241
H     1.25190   0.90198   2.15616
H     2.80908   1.72158   1.86776
H     3.81843  -0.45403  -1.07584
H     4.34656  -0.71031   0.61391
H     4.35253   0.91974  -0.06220
