24
Generated by autodE on: 2022-06-20. E = -705.268206 Ha
C     3.72981  -1.75058  -0.34915
O     2.53390  -0.99144  -0.14684
C     2.68420   0.21809   0.43588
O     3.77354   0.66573   0.78436
C     1.44475   0.92248   0.60438
C     1.36744   2.19261   1.18370
N     1.26492   3.25634   1.66374
O     0.30664   0.29431   0.17212
C    -0.89869   0.71907   0.21265
C    -1.95389  -0.10009  -0.29232
C    -3.27376   0.40252  -0.24035
C    -4.32793  -0.36749  -0.72269
C    -4.07748  -1.63684  -1.25736
C    -2.76859  -2.14204  -1.31202
C    -1.70775  -1.38445  -0.83464
H     4.43073  -1.21155  -1.00390
H     4.22515  -1.96582   0.60940
H     3.41631  -2.68657  -0.82682
H    -1.09782   1.71061   0.63690
H    -3.45331   1.39470   0.17964
H    -5.34830   0.01868  -0.68329
H    -4.90640  -2.23984  -1.63482
H    -2.58444  -3.13347  -1.73079
H    -0.68545  -1.76456  -0.87063
