32
Generated by autodE on: 2022-10-22. E = -797.674572 Ha
C     4.20515   1.05309   1.37775
N     3.45253   0.32961   0.37576
C     2.15162  -0.00521   0.51734
O     1.48946   0.23301   1.53457
C     1.63494  -0.79215  -0.62861
N     0.36372  -1.04841  -0.84749
C     0.06984  -2.16947  -1.77663
C    -0.66749  -0.22849  -0.40136
C    -1.91585  -0.82184   0.05888
O    -2.99596  -0.18605   0.14444
N    -1.87990  -2.12425   0.45307
C    -3.06836  -2.80466   0.92270
C    -0.44562   1.22189  -0.49796
O     0.62207   1.71740  -0.91949
N    -1.48673   2.01427  -0.14539
C    -1.44946   3.44240  -0.36081
H     5.15281   0.53802   1.59651
H     4.43694   2.07742   1.04261
H     3.61043   1.11002   2.29658
H     3.91301   0.10073  -0.50000
H     2.35503  -1.30028  -1.27334
H    -0.97130  -2.10903  -2.10369
H     0.73036  -2.06990  -2.64786
H     0.26718  -3.13141  -1.28588
H    -0.98736  -2.58464   0.57899
H    -3.88781  -2.71133   0.19408
H    -2.83678  -3.86915   1.05637
H    -3.42781  -2.40009   1.88476
H    -2.37237   1.52982   0.01700
H    -2.30328   3.90470   0.15211
H    -1.50083   3.71370  -1.43092
H    -0.52152   3.87268   0.04457
