20
Generated by autodE on: 2022-10-22. E = -759.291615 Ha
C     2.74493  -0.61151   0.22566
O     1.66285  -1.19726   0.96203
C     0.44072  -0.71566   0.81350
C    -0.15316   0.27822   0.10889
C     0.32795   1.22283  -0.91849
F     0.77352   0.61798  -2.05442
F     1.35107   2.00910  -0.50556
F    -0.66103   2.05515  -1.30890
C    -1.66477   0.05580   0.39910
C    -2.08732  -1.26738  -0.27685
C    -1.48010  -2.22519   0.43021
C    -0.71119  -1.46177   1.52951
O    -1.59949  -0.36504   1.77450
H     3.63995  -1.18900   0.48474
H     2.55287  -0.68328  -0.85466
H     2.87907   0.43984   0.51554
H    -2.31351   0.92612   0.26116
H    -2.69730  -1.34400  -1.17641
H    -1.44571  -3.30221   0.27232
H    -0.42892  -2.00335   2.43854
