52
Generated by autodE on: 2022-10-22. E = -1556.965486 Ha. Imaginary frequency = -257.0 cm-1
C     2.70092  -4.19539  -1.39487
N     1.60122  -3.27953  -1.61739
C     0.77319  -2.91360  -0.61457
O     0.88442  -3.38953   0.52724
C    -0.17275  -1.83623  -0.98992
C     0.93602   0.03556  -0.44316
C     1.32537  -0.10725   1.04052
O     0.05819   0.16579   1.67448
C    -0.15316   1.43109   1.02527
C     1.16714   2.14032   1.40056
O     1.13499   3.45566   1.53009
C     2.35820   4.16978   1.75410
C     2.11036   1.16605   1.44621
C     3.58012   1.18019   1.58921
F     4.01390   1.75730   2.73615
F     4.22385   1.84040   0.58800
F     4.07536  -0.07593   1.58141
C    -0.02869   1.02200  -0.44611
C    -2.12375  -0.52152  -0.70611
C    -2.20953  -0.08507  -2.12849
O    -1.49042  -0.55780  -3.03441
N    -3.11043   0.87916  -2.42259
C    -3.29463   1.33022  -3.78348
C    -3.08425   0.02131   0.29778
O    -4.14529   0.60384  -0.01894
N    -2.74559  -0.07603   1.60092
C    -3.55513   0.54188   2.63023
N    -1.36306  -1.63617  -0.38330
C    -1.79475  -2.56970   0.68310
H     3.22765  -4.35608  -2.34318
H     3.41373  -3.79423  -0.65560
H     2.34003  -5.16623  -1.02074
H     1.49000  -2.85056  -2.53004
H    -0.10498  -1.44385  -1.99617
H     1.63970  -0.17577  -1.24626
H     1.74314  -1.06363   1.36595
H    -1.06328   1.93828   1.35993
H     2.81275   3.85901   2.70507
H     2.09004   5.23177   1.79670
H     3.05907   3.99290   0.92574
H    -0.32278   1.66116  -1.27551
H    -3.79905   1.08756  -1.69734
H    -2.34335   1.67229  -4.21947
H    -4.00261   2.16924  -3.78617
H    -3.69217   0.53622  -4.44006
H    -1.78730  -0.32974   1.83191
H    -4.58246   0.14711   2.61627
H    -3.10649   0.32362   3.60779
H    -3.61406   1.63647   2.50251
H    -1.26679  -2.39223   1.62600
H    -1.57869  -3.58970   0.35100
H    -2.87261  -2.47019   0.82605
