28
Generated by autodE on: 2022-06-16. E = -649.743470 Ha
C     0.98915   2.67059   0.02896
C     0.34730   1.49060  -0.68935
C     1.17574   0.16316  -0.73565
C     2.53358   0.14487  -0.04823
C     0.12176  -0.84000  -0.12101
C     0.39981  -2.24516  -0.34769
N     0.64592  -3.36157  -0.54168
C    -0.00538  -0.44483   1.35615
O     0.42210  -0.98332   2.34350
O    -0.69232   0.70680   1.34568
C    -0.99445   1.00843  -0.06940
C    -2.17390   1.93178  -0.14329
N    -1.19845  -0.35694  -0.57477
C    -1.50234  -0.50361  -1.99396
H     1.93140   2.95669  -0.46097
H     1.20733   2.44432   1.08192
H     0.32127   3.54499   0.00037
H     0.11769   1.79496  -1.72061
H     1.30963  -0.14320  -1.78196
H     2.47916   0.44000   1.00957
H     3.22583   0.83392  -0.55359
H     2.97186  -0.86443  -0.09628
H    -1.94660   2.86947   0.38226
H    -3.05671   1.46723   0.31765
H    -2.39559   2.17048  -1.19258
H    -2.50090  -0.08965  -2.18723
H    -1.53288  -1.57457  -2.23923
H    -0.78457  -0.01367  -2.67446
