16
Generated by autodE on: 2022-06-16. E = -492.417600 Ha
C    -2.74686  -1.03667  -0.35163
C    -1.44150  -0.36170  -0.20560
O    -1.35025   0.96316  -0.21970
C     0.02840   1.35883  -0.02855
O     0.32078   2.53877  -0.01310
C     0.70281   0.12811   0.09492
C     2.06681  -0.09483   0.29471
N     3.21208  -0.26533   0.46264
N    -0.25789  -0.90194  -0.02465
C     0.05703  -2.32046   0.06853
H    -2.68020  -1.86851  -1.06744
H    -3.07417  -1.44328   0.61959
H    -3.48851  -0.30843  -0.70117
H     0.46020  -2.53774   1.06727
H     0.80938  -2.57395  -0.69031
H    -0.85049  -2.90928  -0.09837
