23
Generated by autodE on: 2022-05-30. E = -649.398826 Ha
C    -0.35795   2.51312  -0.39287
C    -0.59014   1.04994  -0.54106
C     0.16194  -0.02718  -0.22448
C     1.48755  -0.10576   0.42989
F     2.13492   1.07195   0.51954
F     1.39582  -0.59344   1.69548
F     2.32092  -0.95252  -0.22366
C    -0.68395  -1.27860  -0.43571
C    -1.76794  -1.26352   0.68789
C    -2.62922  -0.02409   0.31079
C    -1.93810   0.49898  -0.99132
C    -1.51840  -0.82909  -1.65083
H     0.63124   2.75811   0.01002
H    -0.48212   3.01653  -1.36685
H    -1.12655   2.94101   0.27437
H    -0.12376  -2.21805  -0.52217
H    -1.31188  -1.18637   1.68443
H    -2.36107  -2.18984   0.65691
H    -3.67032  -0.30668   0.09514
H    -2.64681   0.74486   1.09675
H    -2.54761   1.19639  -1.58049
H    -2.36732  -1.49584  -1.86760
H    -0.91333  -0.68654  -2.55836
