21
Generated by autodE on: 2022-05-30. E = -570.060441 Ha
C     3.09184  -0.25689   1.51913
N     1.79627   0.22921   1.09328
C     0.99997  -0.50552   0.30588
O     1.29004  -1.64650  -0.09480
C    -0.30646   0.07692  -0.11137
C    -1.17551  -0.83506  -0.95228
C    -1.77738  -2.01814  -0.25980
O    -1.38229  -0.56102  -2.12014
N    -0.67689   1.32026   0.12123
C    -1.96970   1.85255  -0.36736
O     0.01958   2.17047   0.76399
H     3.77212  -0.39724   0.66292
H     2.99874  -1.22476   2.03561
H     3.53560   0.47238   2.20743
H     1.47068   1.17704   1.29654
H    -1.03878  -2.51963   0.37948
H    -2.58161  -1.64172   0.39730
H    -2.20338  -2.71420  -0.99468
H    -1.77665   2.41871  -1.28811
H    -2.69131   1.05315  -0.55747
H    -2.33569   2.52468   0.41600
