44
Generated by autodE on: 2022-05-30. E = -1219.413037 Ha. Imaginary frequency = -295.4 cm-1
C    -2.80205   2.15165   1.79469
N    -2.08921   1.60829   0.65697
C    -1.98206   0.28365   0.47595
O    -2.60022  -0.54097   1.16169
C    -1.16370  -0.19342  -0.70937
C    -1.65664  -1.55622  -1.19791
C    -1.25425  -2.78118  -0.43749
O    -2.36768  -1.61579  -2.18563
N    -0.79190   0.70259  -1.65684
C    -0.81958   0.50167  -3.10845
O    -0.14506   1.75245  -1.21454
C     1.33922   1.15525  -0.06646
C     1.30439   2.38919   0.78533
C     2.59552   0.95254  -0.93159
C     2.29998   0.24162  -2.26772
C     1.85136  -1.17797  -1.81796
C     1.98329  -1.11359  -0.27870
C     3.24627  -0.21799  -0.14858
C     0.93314  -0.16214   0.34436
C     0.67288  -0.45293   1.79013
F     0.13817  -1.67743   1.99296
F     1.82724  -0.45456   2.52251
F    -0.13199   0.42979   2.41558
H    -2.80207   3.24620   1.72243
H    -3.84333   1.79706   1.81321
H    -2.32554   1.85732   2.74467
H    -1.44444   2.19469   0.13008
H    -1.74293  -3.65600  -0.88595
H    -0.16160  -2.90153  -0.47164
H    -1.53846  -2.67370   0.61598
H    -0.34962   1.38687  -3.54741
H    -0.29202  -0.40722  -3.42681
H    -1.86210   0.43637  -3.43929
H     1.40083   3.28434   0.15363
H     2.16428   2.37317   1.47628
H     0.39147   2.47201   1.38411
H     3.18401   1.87289  -1.03620
H     1.57004   0.77640  -2.87898
H     3.23146   0.19149  -2.85005
H     2.53280  -1.94939  -2.20469
H     0.84507  -1.45215  -2.15167
H     2.02372  -2.09835   0.20253
H     4.13483  -0.63012  -0.65429
H     3.49898   0.02900   0.89011
