39
Generated by autodE on: 2022-06-18. E = -823.820412 Ha
C    -5.78178  -0.28766  -0.14746
C    -4.55332   0.26770  -0.17290
C    -4.34070   1.71269  -0.53836
C    -3.38309  -0.55099   0.16170
C    -2.10678  -0.12661   0.17258
C    -0.95021  -1.00701   0.55302
C    -0.17756  -0.38523   1.70065
C    -0.68832  -0.19482   3.00628
N    -1.14779  -0.06709   4.07100
N     0.98900   0.07724   1.35437
N     1.24470  -0.23608   0.08782
C     2.36635   0.33099  -0.54369
C     2.89981   1.53743  -0.04877
C     4.01599   2.11340  -0.65282
C     4.61308   1.51507  -1.76798
C     4.08155   0.32138  -2.26244
C     2.97433  -0.27671  -1.65660
C     0.20587  -1.15518  -0.50498
C     0.71649  -2.59923  -0.47158
C    -0.21491  -0.73211  -1.90842
H    -5.92173  -1.33957   0.11970
H    -6.67592   0.29265  -0.39196
H    -3.67920   1.80588  -1.41572
H    -3.85117   2.26081   0.28380
H    -5.29338   2.21033  -0.76784
H    -3.58802  -1.59659   0.42049
H    -1.86175   0.91052  -0.07410
H    -1.33080  -2.00379   0.81524
H     2.42687   2.01711   0.80740
H     4.41408   3.04933  -0.25332
H     5.48157   1.97435  -2.24473
H     4.53853  -0.16650  -3.12665
H     2.60606  -1.22211  -2.04714
H     1.58003  -2.74597  -1.13418
H    -0.08801  -3.27303  -0.80311
H     1.00684  -2.88537   0.55086
H    -1.11679  -1.29317  -2.19187
H     0.56303  -0.95179  -2.65060
H    -0.44928   0.33995  -1.95486
