23
Generated by autodE on: 2022-06-18. E = -351.521384 Ha
C     3.68796   0.82286  -0.14098
C     2.58327   0.04565  -0.10286
C     2.68261  -1.45835  -0.11330
C     1.25894   0.66159  -0.04939
C     0.07783  -0.00470  -0.00595
C    -1.21023   0.65622   0.04713
C    -2.43003   0.06365   0.09692
C    -3.68455   0.88890   0.14843
C    -2.65119  -1.42229   0.10723
H     3.61221   1.91463  -0.13314
H     4.69083   0.38866  -0.18122
H     3.73023  -1.78803  -0.15595
H     2.14929  -1.88580  -0.97867
H     2.21891  -1.89354   0.78760
H     1.24080   1.75814  -0.04463
H     0.08751  -1.09807  -0.01024
H    -1.18063   1.75260   0.04661
H    -4.34347   0.65320  -0.70662
H    -4.26923   0.65593   1.05659
H    -3.47333   1.96830   0.13784
H    -3.20980  -1.71863   1.01268
H    -1.72299  -2.00702   0.07180
H    -3.27930  -1.72125  -0.75052
