16
Generated by autodE on: 2022-06-18. E = -472.208564 Ha
N     4.52233  -0.13208   1.81294
C     3.53926  -0.26822   1.18812
C     2.40417  -0.42391   0.46794
N     1.41653  -0.57122  -0.16436
N     0.45103  -0.79457  -0.89198
C    -0.79357  -0.19374  -0.61361
C    -1.85060  -0.49327  -1.48766
C    -3.10851   0.06801  -1.27125
C    -3.32304   0.92810  -0.18798
C    -2.26641   1.22363   0.68108
C    -1.00292   0.66871   0.47668
H    -1.66852  -1.16521  -2.32824
H    -3.92779  -0.16806  -1.95417
H    -4.30924   1.36657  -0.02139
H    -2.42587   1.89403   1.52888
H    -0.18262   0.90251   1.15849
