49
Generated by autodE on: 2022-06-20. E = -983.041174 Ha
C    -0.88696  -2.74812  -1.76296
C    -1.18487  -2.45259  -0.49048
C    -1.85740  -3.42774   0.43328
C    -0.88938  -1.08805   0.10496
C    -1.74829   0.06103  -0.46561
C    -3.15869  -0.03958   0.10193
C    -3.41534   0.49727   1.48283
O    -4.02533  -0.60385  -0.54824
N    -1.02509   1.24542  -0.05317
C    -1.52432   2.50821  -0.57020
C     0.42321   0.99563  -0.10727
C     0.96528   1.53997  -1.46470
C     1.58189   2.90866  -1.54918
O     0.79641   0.87709  -2.47522
C     1.15495   1.58010   1.10164
C     0.37313   1.74783   2.36967
O     2.34547   1.83870   1.02863
C     0.55313  -0.58264  -0.08961
C     1.50635  -1.17988   0.90694
C     2.82562  -1.36916   0.72639
C     3.56595  -0.96594  -0.51907
C     3.68257  -1.95606   1.81436
H    -1.12045  -3.72990  -2.18551
H    -0.41037  -2.02169  -2.42806
H    -2.81329  -3.01356   0.79871
H    -1.23411  -3.60816   1.32635
H    -2.05870  -4.39150  -0.05680
H    -1.08293  -1.13240   1.18738
H    -1.83261  -0.04141  -1.56527
H    -2.58684   0.26168   2.16605
H    -4.36177   0.09372   1.86608
H    -3.48867   1.59625   1.43936
H    -2.58987   2.61582  -0.32090
H    -0.99212   3.34851  -0.10132
H    -1.43408   2.60459  -1.67116
H     1.42612   3.30915  -2.56009
H     2.66435   2.80600  -1.37231
H     1.19456   3.60066  -0.79091
H     1.05509   1.98642   3.19614
H    -0.20255   0.83626   2.58945
H    -0.36131   2.55922   2.24426
H     0.86904  -0.84566  -1.10324
H     1.07113  -1.46072   1.87279
H     4.19607  -0.08383  -0.30851
H     2.90481  -0.70805  -1.35665
H     4.24803  -1.76866  -0.84607
H     4.19398  -2.86924   1.46248
H     4.47937  -1.24798   2.10373
H     3.09852  -2.20648   2.71226
