23
Generated by autodE on: 2022-06-20. E = -351.521386 Ha
C     3.50802  -1.14944   0.81877
C     2.26931  -0.66158   1.04959
C     1.82328  -0.28060   2.43812
C     1.33231  -0.49505  -0.05962
C     0.06651  -0.01673   0.03912
C    -0.82243   0.12695  -1.09573
C    -2.09675   0.59330  -1.08255
C    -2.82027   1.05333   0.15117
C    -2.89564   0.68255  -2.35204
H     3.82841  -1.42538  -0.19066
H     4.22898  -1.28455   1.62986
H     2.62030  -0.45569   3.17446
H     1.53550   0.78285   2.48545
H     0.93605  -0.85995   2.74333
H     1.70424  -0.78848  -1.04872
H    -0.31095   0.27826   1.02196
H    -0.40664  -0.17859  -2.06355
H    -3.14409   2.10274   0.03464
H    -3.74283   0.46354   0.29496
H    -2.22177   0.98043   1.06829
H    -3.81954   0.08128  -2.27638
H    -3.22301   1.72167  -2.53618
H    -2.32621   0.33687  -3.22727
