26
Generated by autodE on: 2022-07-27. E = -631.476548 Ha
C    -3.26261  -1.85516  -0.92008
C    -2.64523  -0.79285  -0.05850
O    -3.30312  -0.01699   0.62056
C    -1.15825  -0.76753  -0.10703
N    -0.38196   0.11855   0.46212
C    -0.91551   1.17667   1.34443
C     0.96185   0.21639   0.03311
C     1.14549   0.21250  -1.41258
C     2.49561   0.58228  -1.98392
O     0.21969  -0.05022  -2.19882
C     2.01619   0.36379   1.01269
C     1.71067   0.08914   2.47751
O     3.18827   0.64084   0.70975
H    -2.92687  -1.72737  -1.96284
H    -4.35675  -1.80227  -0.86208
H    -2.91177  -2.84824  -0.59243
H    -0.66620  -1.56516  -0.65778
H    -1.42882   0.73348   2.20434
H    -1.63111   1.78372   0.77535
H    -0.08607   1.81028   1.66509
H     2.40458   0.61015  -3.07805
H     2.85053   1.54920  -1.60322
H     3.25012  -0.16371  -1.69298
H     2.57083  -0.45161   2.89802
H     1.62900   1.04369   3.02226
H     0.79711  -0.49253   2.65353
