26
Generated by autodE on: 2022-06-20. E = -631.479105 Ha
C     3.47039  -0.39659   0.46816
C     2.10183   0.19929   0.59721
O     1.55612   0.41508   1.66683
C     1.49539   0.69840  -0.67951
N     0.21680   0.79164  -0.90326
C    -0.22189   1.57044  -2.08354
C    -0.72409  -0.02090  -0.21707
C    -1.99413   0.52437   0.19976
C    -2.18472   2.03183   0.18801
O    -2.92379  -0.18105   0.62724
C    -0.31158  -1.39291  -0.05017
C    -1.32247  -2.44584   0.33621
O     0.87204  -1.75130  -0.23397
H     3.73667  -0.92832   1.39088
H     3.53210  -1.06501  -0.40184
H     4.18854   0.42714   0.30905
H     2.17116   1.11129  -1.43452
H    -0.32216   2.62845  -1.81222
H    -1.17932   1.17728  -2.43830
H     0.53352   1.47192  -2.87270
H    -1.25591   2.58832   0.37396
H    -2.92400   2.28304   0.96084
H    -2.59354   2.35487  -0.78258
H    -2.22681  -2.40375  -0.28403
H    -1.64525  -2.28587   1.37674
H    -0.83935  -3.42875   0.25323
