49
Generated by autodE on: 2022-06-20. E = -982.980592 Ha. Imaginary frequency = -455.6 cm-1
C    -1.10165  -2.25378  -2.27159
C    -1.33874  -2.37383  -0.95455
C    -2.27752  -3.40837  -0.39408
C    -0.71691  -1.47209   0.07041
C    -1.64953   0.26072  -0.34952
C    -3.08114  -0.01820   0.03452
C    -4.02597  -0.24891  -1.10546
O    -3.42745  -0.08163   1.20431
N    -0.98642   1.29812   0.23603
C    -1.63190   2.13865   1.25673
C     0.35305   1.51016  -0.14949
C     0.66310   1.53570  -1.57847
C     2.08643   1.69344  -2.06694
O    -0.22889   1.44398  -2.44421
C     1.36014   1.76190   0.87280
C     1.02124   1.65892   2.34946
O     2.54601   1.99964   0.59071
C     0.67853  -1.22854  -0.01185
C     1.52656  -1.20441   1.13278
C     2.89374  -1.17738   1.13484
C     3.74852  -1.19662  -0.09528
C     3.64315  -1.13315   2.43057
H    -0.43881  -1.48146  -2.67303
H    -1.57067  -2.93095  -2.99040
H    -3.09332  -2.92915   0.17385
H    -1.75173  -4.06979   0.31559
H    -2.72108  -4.02576  -1.18828
H    -1.08496  -1.63099   1.08997
H    -1.44687   0.14193  -1.40978
H    -3.63925  -1.05012  -1.75509
H    -5.02724  -0.49950  -0.73208
H    -4.06601   0.66217  -1.72665
H    -1.76565   1.62351   2.21469
H    -1.02647   3.03769   1.39990
H    -2.61830   2.45742   0.89318
H     2.06912   1.60688  -3.16231
H     2.75440   0.93573  -1.64060
H     2.49783   2.67106  -1.77880
H     1.93744   1.35881   2.87429
H     0.22134   0.94820   2.58044
H     0.72587   2.64821   2.73310
H     1.14063  -1.26897  -1.00026
H     1.02238  -1.22165   2.10345
H     4.40896  -0.31400  -0.10781
H     4.41272  -2.07863  -0.07252
H     3.17951  -1.21742  -1.03222
H     4.36446  -1.96680   2.49724
H     4.24083  -0.20557   2.48406
H     2.97468  -1.16936   3.30204
