12
Generated by autodE on: 2022-06-22. E = -157.299004 Ha
C    -1.51924  -0.64026   0.32565
C    -0.69900   0.59511   0.10300
C     0.61664   0.67031  -0.15371
C     1.59098  -0.46235  -0.28149
H    -0.92874  -1.56564   0.26577
H    -2.00837  -0.61262   1.31542
H    -2.33455  -0.70858  -0.41621
H    -1.25465   1.53982   0.15984
H     1.04578   1.67139  -0.28832
H     2.07877  -0.44947  -1.27222
H     1.12481  -1.44886  -0.14658
H     2.40351  -0.36598   0.46033
