31
Generated by autodE on: 2022-06-22. E = -913.371332 Ha
C     4.37348  -0.36782  -1.70494
N     3.57227  -0.56320  -0.51288
C     2.23107  -0.40510  -0.53218
O     1.62504   0.01235  -1.53860
C     1.49724  -0.78414   0.67093
C     2.00658  -1.63360   1.66364
N     2.47319  -2.31657   2.49312
O     0.14661  -0.65773   0.71314
C    -0.65169   0.15623   0.09784
C    -0.15135   1.42599  -0.53163
O    -0.62925   1.91977  -1.52921
O     0.77604   1.99207   0.23368
C     1.39957   3.18066  -0.27974
C    -2.05811  -0.16733   0.16793
C    -3.05443   0.76662  -0.20586
C    -4.40060   0.42822  -0.10622
C    -4.78121  -0.83395   0.36285
C    -3.80353  -1.76695   0.73449
C    -2.45610  -1.44392   0.63650
H     4.23259  -1.17967  -2.43868
H     5.43184  -0.33417  -1.41861
H     4.10683   0.58079  -2.19286
H     4.01255  -0.97657   0.30328
H     1.86452   2.96562  -1.25209
H     2.16168   3.46054   0.45567
H     0.65829   3.98447  -0.39008
H    -2.77274   1.75494  -0.56460
H    -5.16083   1.15742  -0.39330
H    -5.83962  -1.09353   0.43599
H    -4.09837  -2.75512   1.09358
H    -1.69579  -2.17628   0.90894
