43
Generated by autodE on: 2022-06-22. E = -1070.676690 Ha. Imaginary frequency = -288.4 cm-1
C     4.62930   1.62871   0.37534
N     3.23944   1.28762   0.14693
C     2.88858   0.28488  -0.68010
O     3.70113  -0.37577  -1.34609
C     1.44767  -0.03943  -0.73486
C     0.99036  -0.91516  -1.74530
N     0.64217  -1.68762  -2.54775
O     0.64759   0.78412  -0.05979
C    -0.59120   0.60391   0.38054
C    -0.76211   1.36226   1.64841
O     0.16543   1.88926   2.23862
O    -2.01849   1.36807   2.08981
C    -2.25490   2.00266   3.35504
C    -1.68380   0.26528  -0.53432
C    -2.88715  -0.31529  -0.08177
C    -3.92404  -0.57789  -0.97405
C    -3.79097  -0.26092  -2.33047
C    -2.61179   0.33492  -2.78761
C    -1.56798   0.59619  -1.90214
C     0.03950  -1.60386   1.47278
C    -0.99655  -2.60880   1.06334
C     1.35761  -1.69611   1.07594
C     1.92946  -2.86956   0.33943
H     4.67523   2.55227   0.96516
H     5.15086   1.79128  -0.57946
H     5.16220   0.83263   0.92204
H     2.51646   1.71520   0.71784
H    -1.66011   1.51860   4.14292
H    -1.99540   3.06961   3.30230
H    -3.32522   1.88076   3.55604
H    -3.00346  -0.56219   0.97041
H    -4.84443  -1.03721  -0.60667
H    -4.60654  -0.47011  -3.02632
H    -2.50400   0.60585  -3.84017
H    -0.66975   1.09377  -2.26900
H    -0.17828  -0.97508   2.33732
H    -1.16243  -2.61108  -0.02647
H    -1.95953  -2.42270   1.55405
H    -0.67357  -3.62888   1.33756
H     2.07199  -1.03488   1.57272
H     2.86812  -2.60811  -0.16927
H     1.23115  -3.28054  -0.40318
H     2.15449  -3.67824   1.05882
