21
Generated by autodE on: 2022-07-27. E = -682.308910 Ha
C     4.29651  -0.60663  -0.69928
N     2.98100  -0.39302  -0.13570
C     1.85530  -0.32165  -0.87787
O     1.81413  -0.43302  -2.11305
C     0.62738  -0.09437  -0.11460
N    -0.59067   0.01216  -0.72519
C    -1.54283   0.21701   0.16414
C    -2.97411   0.37350  -0.13690
C    -3.88969   0.58978   1.02594
O    -3.32822   0.31742  -1.30753
O    -1.01032   0.25573   1.38799
C     0.40472   0.05971   1.28017
O     1.11379   0.05565   2.26978
H     4.97177   0.22812  -0.45314
H     4.74569  -1.53749  -0.31783
H     4.20922  -0.67907  -1.78959
H     2.88901  -0.28631   0.87213
H    -0.75032  -0.05903  -1.73344
H    -3.81427  -0.25846   1.72583
H    -4.92136   0.69452   0.66849
H    -3.58530   1.49258   1.58030
