20
Generated by autodE on: 2022-10-21. E = -702.169323 Ha
C     4.27064  -0.32034   0.19025
O     2.91640   0.07018   0.45370
C     1.97174  -0.49594  -0.30896
O     2.19941  -1.30590  -1.19551
C     0.64172  -0.04007   0.03583
N    -0.46703  -0.50282  -0.63238
C    -1.55938   0.04543  -0.14909
C    -2.93109  -0.22570  -0.63355
C    -4.04297   0.50410   0.04686
O    -3.06568  -1.02019  -1.55170
O    -1.25423   0.87925   0.83805
C     0.18531   0.87998   1.02247
O     0.68325   1.57634   1.87618
H     4.88887   0.24372   0.89811
H     4.39995  -1.40058   0.35138
H     4.55201  -0.06929  -0.84283
H    -0.45689  -1.17892  -1.40015
H    -3.89346   1.59125  -0.05969
H    -4.03079   0.28273   1.12657
H    -5.00340   0.20843  -0.39245
