19
Generated by autodE on: 2022-10-21. E = -311.210319 Ha
C     2.36464   0.51877   0.55781
O     1.16208   0.75915  -0.15803
C     0.22463  -0.26728  -0.19114
C     0.77939  -1.62192  -0.52504
C    -1.07210   0.05165   0.01197
C    -2.20526  -0.93266  -0.10027
C    -1.50408   1.45573   0.34587
H     2.91220   1.47155   0.58564
H     2.16195   0.19587   1.59452
H     3.00379  -0.23528   0.06827
H     1.38143  -2.03274   0.30280
H     1.44409  -1.55284  -1.40268
H    -0.01121  -2.34652  -0.74935
H    -1.89137  -1.94655  -0.37879
H    -2.94281  -0.58914  -0.84814
H    -2.75184  -1.00124   0.85743
H    -2.12244   1.87958  -0.46650
H    -0.65479   2.12890   0.51456
H    -2.14026   1.45998   1.24864
