32
Generated by autodE on: 2022-10-20. E = -971.492291 Ha
C     4.02405   1.62298   0.43668
O     2.73638   1.27193  -0.08071
C     2.46463  -0.04584  -0.18678
O     3.26785  -0.90307   0.14791
C     1.14888  -0.24817  -0.77764
C     0.25577  -1.27919  -0.74915
O     0.19060  -2.46204  -0.16898
C     1.07927  -2.79730   0.90880
C    -0.96961  -0.80027  -1.52611
O    -0.37327   0.07905  -2.48227
C     0.40113   0.84112  -1.53815
C    -0.73640   1.40055  -0.62657
O    -0.39981   1.55416   0.75880
O    -0.86921   0.34701   1.44171
C    -2.09678   0.02095   0.78526
C    -2.51897  -1.38287   1.20339
C    -3.13366   0.99662   1.21462
N    -3.94238   1.75154   1.56192
C    -1.77567   0.26066  -0.69625
H     4.14839   1.24093   1.46057
H     4.06182   2.71875   0.43663
H     4.82351   1.21666  -0.20045
H     0.70851  -3.74465   1.31724
H     2.10625  -2.90558   0.54170
H     1.03809  -2.01014   1.67551
H    -1.57409  -1.58581  -1.99075
H     1.01298   1.59616  -2.03897
H    -1.10788   2.37640  -0.96430
H    -2.65886  -1.42286   2.29234
H    -1.76270  -2.11509   0.90172
H    -3.47208  -1.62644   0.71359
H    -2.67113   0.52539  -1.26931
