9
Generated by autodE on: 2022-10-26. E = -321.303037 Ha
C    -0.72252  -1.88436   0.12445
C    -0.11140  -0.54476   0.02400
C    -0.88395   0.66310   0.08033
N    -1.58974   1.58417   0.13787
O     1.14793  -0.43477  -0.11616
O     1.70149   0.79194  -0.20486
H    -1.25893  -1.97304   1.08400
H     0.05550  -2.65462   0.05105
H    -1.46448  -2.01182  -0.68147
