32
Generated by autodE on: 2022-10-20. E = -971.390641 Ha. Imaginary frequency = -254.0 cm-1
C     3.67414   1.81022   0.54601
O     2.58792   1.32760  -0.24742
C     2.22517   0.03896  -0.05910
O     2.84350  -0.69691   0.69514
C     1.06029  -0.27896  -0.86975
C     0.16481  -1.31022  -0.89407
O     0.01025  -2.48446  -0.31887
C     0.92009  -2.95817   0.68658
C    -0.97442  -0.84685  -1.81544
O    -0.22803  -0.07880  -2.77143
C     0.40072   0.77077  -1.78625
C    -0.84999   1.32339  -1.07508
O    -0.11902   1.35231   1.27952
O    -0.61848   0.10821   1.51490
C    -1.88985  -0.00948   1.29365
C    -2.52624  -1.33802   1.50082
C    -2.68596   1.18927   1.37568
N    -3.40843   2.09563   1.45677
C    -1.74113   0.28551  -1.08462
H     3.42344   1.75287   1.61600
H     3.82403   2.85590   0.25167
H     4.58917   1.22994   0.35652
H     0.55486  -3.95280   0.96843
H     1.93638  -3.02241   0.27939
H     0.90461  -2.28598   1.55321
H    -1.57335  -1.64205  -2.26959
H     1.06796   1.50664  -2.24086
H    -1.02416   2.36872  -0.83686
H    -2.83070  -1.43161   2.55766
H    -1.82350  -2.13943   1.24591
H    -3.42726  -1.41803   0.87793
H    -2.82643   0.32133  -1.01757
