37
Generated by autodE on: 2022-07-27. E = -937.908220 Ha
C    -4.12899   0.06724  -1.59322
O    -2.97605  -0.77178  -1.49206
C    -2.02978  -0.38875  -0.60667
O    -2.15751   0.64101   0.05580
C    -0.89318  -1.28128  -0.52890
C    -0.66867  -2.55898  -1.14081
C    -1.68555  -3.16549  -2.08094
O     0.39792  -3.17579  -0.92597
N     0.08118  -0.86372   0.44327
C     0.16060  -1.61610   1.69949
C     0.71489   0.24752   0.19273
C     0.67390   0.71052  -1.26201
C     1.43149  -0.12951  -2.24967
O     0.15779   1.78037  -1.52746
C     1.42211   1.07732   1.16341
C     2.59706   1.74584   0.76165
C     3.27863   2.56173   1.66102
C     2.78008   2.74578   2.95551
C     1.59622   2.11289   3.35035
C     0.91963   1.27697   2.46511
H    -4.77075  -0.39318  -2.35434
H    -3.84829   1.08458  -1.90352
H    -4.66468   0.11925  -0.63365
H    -1.83444  -2.52434  -2.96224
H    -1.31080  -4.14684  -2.40140
H    -2.66640  -3.27742  -1.59755
H     1.10123  -1.40031   2.21821
H     0.11521  -2.67968   1.44267
H    -0.69657  -1.35890   2.33685
H     1.00114  -0.00455  -3.25285
H     1.47467  -1.18699  -1.96196
H     2.46588   0.25863  -2.26621
H     2.98426   1.60877  -0.24991
H     4.19765   3.06233   1.35003
H     3.31037   3.39456   3.65626
H     1.19511   2.27590   4.35268
H    -0.01916   0.81364   2.76675
