49
Generated by autodE on: 2022-06-23. E = -1162.669520 Ha
C    -4.25620  -0.27163   0.99514
N    -3.13209  -0.86291   0.29271
C    -1.92226  -0.97376   0.86588
O    -1.75257  -0.81348   2.08200
C    -0.73680  -1.35936  -0.05483
C    -1.07515  -2.63819  -0.83056
N     0.45323  -1.55622   0.79641
C     1.47389  -0.53418   0.47757
C     2.12351  -0.08748   1.72067
N     2.64817   0.25558   2.69735
C     2.58516  -1.06662  -0.44757
C     2.62085  -2.40664  -0.84192
C     3.63106  -2.86467  -1.69519
C     4.61931  -1.98903  -2.15067
C     4.59658  -0.64976  -1.74455
C     3.58597  -0.19208  -0.89758
C     0.68746   0.62661  -0.20129
C     0.00299   1.56576   0.80472
C    -1.27814   2.14720   0.26084
C    -2.00276   3.20383   0.97698
N    -1.41042   3.69550   2.09446
O    -3.11620   3.64023   0.61202
C    -1.83507   1.67306  -0.89200
N    -1.36088   0.62016  -1.60021
C    -1.94246   0.22100  -2.87017
C    -0.31273  -0.19032  -1.02797
H    -4.31927  -0.67466   2.01423
H    -4.15431   0.82596   1.05799
H    -5.18352  -0.51037   0.45887
H    -3.19120  -0.90719  -0.71802
H    -1.28494  -3.46372  -0.13432
H    -1.94962  -2.50452  -1.48251
H    -0.22189  -2.92066  -1.46263
H     0.14051  -1.43276   1.76125
H     1.85240  -3.08556  -0.47576
H     3.64388  -3.91334  -2.00183
H     5.40793  -2.34727  -2.81655
H     5.36944   0.04153  -2.08859
H     3.57967   0.85354  -0.58019
H     1.33471   1.20687  -0.86938
H     0.71782   2.36736   1.05331
H    -0.19932   1.03574   1.74958
H    -1.89942   4.40298   2.63138
H    -0.51859   3.35847   2.43377
H    -2.73365   2.14791  -1.29018
H    -1.17378   0.19777  -3.66035
H    -2.71799   0.94218  -3.15776
H    -2.39988  -0.78069  -2.81738
H     0.22658  -0.66670  -1.85824
