20
Generated by autodE on: 2022-06-23. E = -457.715333 Ha
C     2.90459  -0.31545  -1.24807
N     1.77112   0.12297  -0.45025
C     1.86918   1.30287   0.29799
C     0.83203   1.81991   0.97532
C    -0.53769   1.18752   0.99463
C    -0.55469  -0.06974   0.14059
C    -1.77825  -0.87354  -0.01255
N    -2.87849  -0.41489   0.63612
O    -1.83475  -1.92008  -0.69005
C     0.56190  -0.50260  -0.51006
H     3.81541  -0.35822  -0.63148
H     2.70449  -1.31930  -1.64362
H     3.09196   0.36594  -2.09553
H     2.85619   1.76889   0.29284
H     0.98905   2.73964   1.54347
H    -1.29693   1.91595   0.64317
H    -0.83698   0.96014   2.03849
H    -2.87666   0.43148   1.19101
H    -3.74354  -0.93732   0.55168
H     0.52079  -1.40625  -1.12021
