29
Generated by autodE on: 2022-06-23. E = -704.904162 Ha
C     4.95476   0.48234  -1.66416
N     4.01937   0.17983  -0.60080
C     2.68248   0.21762  -0.75391
O     2.12728   0.52519  -1.82997
C     1.84661  -0.12725   0.42207
C     2.33448  -0.59241   1.74754
N     0.55894  -0.00111   0.13898
C    -0.60340  -0.14501   0.82281
C    -0.60840  -0.32350   2.22371
N    -0.70577  -0.44713   3.39213
C    -1.88034  -0.06582   0.10387
C    -1.94945  -0.07198  -1.30805
C    -3.17701   0.02155  -1.96405
C    -4.37085   0.10711  -1.24026
C    -4.31782   0.09902   0.15766
C    -3.09472   0.01628   0.82102
H     5.57793   1.35304  -1.40518
H     4.39515   0.70791  -2.57868
H     5.62065  -0.37369  -1.85613
H     4.39951  -0.04945   0.31032
H     1.78788  -1.49668   2.05972
H     2.18681   0.16842   2.53225
H     3.40105  -0.84693   1.72344
H     0.45879   0.28132  -0.85025
H    -1.04882  -0.16923  -1.91925
H    -3.19776   0.01468  -3.05655
H    -5.32960   0.17326  -1.75902
H    -5.23916   0.16238   0.74182
H    -3.07673   0.02111   1.91254
