29
Generated by autodE on: 2022-07-27. E = -704.901425 Ha
C    -5.02340  -1.25657  -0.19728
N    -3.63566  -1.07271  -0.57219
C    -2.80223  -0.31775   0.16689
O    -3.17850   0.25819   1.20899
C    -1.40234  -0.17892  -0.29659
C    -0.87674  -0.69805  -1.58617
N    -0.69101   0.56207   0.54388
C     0.61718   0.92704   0.61681
C     0.89480   2.01841   1.46687
N     1.14775   2.92410   2.16525
C     1.73305   0.21599  -0.02265
C     1.76412  -1.19340  -0.08344
C     2.85947  -1.85559  -0.63902
C     3.95173  -1.13309  -1.13042
C     3.94285   0.26431  -1.05147
C     2.84789   0.93264  -0.50474
H    -5.49779  -1.93336  -0.91788
H    -5.10949  -1.69293   0.81058
H    -5.56930  -0.29948  -0.19773
H    -3.28693  -1.54252  -1.39936
H    -0.40843  -1.69354  -1.49455
H    -1.68613  -0.77454  -2.32571
H    -0.11545  -0.01730  -1.99254
H    -1.30930   0.93822   1.28208
H     0.93897  -1.77311   0.33244
H     2.86423  -2.94767  -0.67557
H     4.80751  -1.65510  -1.56437
H     4.79298   0.83952  -1.42618
H     2.84521   2.02408  -0.45688
