38
Generated by autodE on: 2022-06-16. E = -602.368789 Ha
C     3.97797   2.58843   0.08963
C     3.20711   1.60807  -0.42421
C     3.68692   0.73970  -1.55784
C     1.86682   1.36889   0.12344
C     1.00210   0.42700  -0.30070
C    -0.35438   0.21534   0.28170
C    -1.55952   0.40764  -0.70073
C    -2.06405   1.84942  -0.65472
C    -1.25037   0.02704  -2.15364
N    -2.60632  -0.50513  -0.19363
C    -2.10743  -1.32734   0.65014
C    -2.92079  -2.38538   1.32476
C    -0.60986  -1.18596   0.92114
C     0.15228  -2.33956   0.24288
C    -0.27446  -1.17789   2.41680
H     3.62199   3.21525   0.91317
H     4.98089   2.78932  -0.29764
H     3.69437  -0.32396  -1.26687
H     3.01749   0.82112  -2.43040
H     4.70207   1.01977  -1.87287
H     1.56442   2.02582   0.94800
H     1.29456  -0.23292  -1.12126
H    -0.49524   0.95163   1.08839
H    -2.38782   2.11930   0.36263
H    -2.91570   1.99303  -1.33842
H    -1.26158   2.54228  -0.95423
H    -0.52541   0.72606  -2.59741
H    -2.17364   0.06754  -2.75214
H    -0.84059  -0.99023  -2.23145
H    -3.94837  -2.39663   0.93694
H    -2.46802  -3.37939   1.17837
H    -2.95334  -2.20946   2.41267
H    -0.15879  -3.30590   0.66858
H     1.23539  -2.23530   0.41031
H    -0.02514  -2.37379  -0.84145
H    -0.44007  -2.16602   2.87383
H    -0.88289  -0.43841   2.96092
H     0.78668  -0.91592   2.55898
