23
Generated by autodE on: 2022-06-16. E = -351.521385 Ha
C    -3.50529   1.41770  -0.01477
C    -2.29439   1.07929  -0.50970
C    -1.92786   1.36079  -1.94444
C    -1.31066   0.42612   0.35149
C    -0.06639   0.03576  -0.02298
C     0.86989  -0.61081   0.87380
C     2.12586  -1.03226   0.57971
C     2.98059  -1.69081   1.62547
C     2.77413  -0.89289  -0.76839
H    -3.76829   1.21182   1.02744
H    -4.26023   1.90679  -0.63667
H    -2.75379   1.85278  -2.47720
H    -1.03926   2.01073  -2.00732
H    -1.67533   0.43058  -2.48008
H    -1.62602   0.24439   1.38601
H     0.25517   0.21365  -1.05282
H     0.51047  -0.77058   1.89760
H     2.46587  -1.77019   2.59428
H     3.27977  -2.70494   1.30464
H     3.92036  -1.12898   1.77381
H     3.70407  -0.30286  -0.68585
H     3.07472  -1.88401  -1.15173
H     2.13230  -0.41602  -1.52017
