15
Generated by autodE on: 2022-06-16. E = -250.750151 Ha
C     2.61902   0.01833  -0.33227
C     1.37932  -0.82963  -0.28775
N     0.27426  -0.30635  -0.07734
C    -0.90551   0.13205   0.13336
C    -1.78502   0.54938  -1.01222
C    -1.45731   0.20957   1.52964
H     3.11334  -0.12151  -1.30803
H     2.44310   1.09733  -0.16520
H     3.33361  -0.35330   0.42088
H    -2.70774  -0.05724  -1.02650
H    -2.09681   1.60173  -0.89697
H    -1.27188   0.43687  -1.97715
H    -2.37118  -0.40462   1.61402
H    -0.72648  -0.13812   2.27266
H    -1.74585   1.24628   1.77450
