38
Generated by autodE on: 2022-06-16. E = -602.265505 Ha. Imaginary frequency = -203.8 cm-1
C     3.08162   3.11615  -1.46546
C     2.66394   1.85289  -1.19753
C     3.16741   0.69683  -2.03032
C     1.72945   1.57374  -0.11831
C     1.25772   0.33303   0.22397
C     0.33093   0.04625   1.26985
C    -1.66907   0.43884  -0.89476
C    -2.10307   1.76949  -0.36049
C    -0.94797   0.39834  -2.20528
N    -2.03805  -0.65342  -0.31417
C    -1.99019  -1.57030   0.50038
C    -2.97505  -2.64467   0.77147
C    -0.08780  -1.21924   1.67592
C     0.60947  -2.46783   1.18180
C    -0.73274  -1.35375   3.03784
H     2.72734   3.96763  -0.87522
H     3.78104   3.32620  -2.27939
H     3.86208   1.03933  -2.81062
H     3.69052  -0.04754  -1.40702
H     2.33436   0.16501  -2.51942
H     1.38383   2.44066   0.45884
H     1.61928  -0.52233  -0.35559
H    -0.07329   0.90598   1.81757
H    -2.57472   1.67799   0.62719
H    -2.81157   2.26332  -1.04997
H    -1.22318   2.43226  -0.28064
H    -0.06698   1.06060  -2.15174
H    -1.58891   0.77595  -3.02200
H    -0.61458  -0.61817  -2.45540
H    -3.73438  -2.75705  -0.02011
H    -2.45818  -3.60370   0.92833
H    -3.48663  -2.40756   1.71949
H     1.56556  -2.61190   1.71916
H     0.83683  -2.42787   0.10719
H    -0.00362  -3.36316   1.36463
H    -1.34409  -0.47267   3.28661
H     0.04755  -1.44843   3.81671
H    -1.36682  -2.25022   3.11110
