36
Generated by autodE on: 2022-10-13. E = -879.643619 Ha
C     2.41143   2.19326   0.69491
O     1.79174   0.94699   0.36103
C     0.57186   0.72462   0.88366
O    -0.01042   1.55783   1.56242
C     0.07626  -0.61915   0.56466
C     1.01049  -1.72079   0.28300
C     2.15555  -1.92229   1.08029
C     3.04145  -2.96216   0.80276
C     2.80242  -3.82619  -0.27287
C     1.67294  -3.63487  -1.07422
C     0.78856  -2.58914  -0.80415
N    -1.26138  -0.84021   0.57384
C    -1.77942  -2.19090   0.88216
N    -2.22116   0.02099   0.38567
C    -1.98313   1.19229  -0.33392
C    -2.70770   2.33758   0.04339
C    -2.61475   3.51813  -0.69684
C    -1.80914   3.57536  -1.83657
C    -1.09801   2.43194  -2.23036
C    -1.16914   1.25609  -1.48932
H     2.54153   2.28495   1.78332
H     3.38843   2.18788   0.19756
H     1.80465   3.03494   0.32970
H     2.34268  -1.26116   1.92871
H     3.92108  -3.10572   1.43473
H     3.49658  -4.64220  -0.48662
H     1.48364  -4.29641  -1.92289
H    -0.07700  -2.43262  -1.45085
H    -2.08584  -2.69087  -0.04510
H    -1.02033  -2.78063   1.40350
H    -2.65967  -2.04462   1.51866
H    -3.34025   2.28326   0.93150
H    -3.17980   4.39802  -0.37946
H    -1.73678   4.49665  -2.41857
H    -0.47878   2.45816  -3.13053
H    -0.60202   0.38151  -1.81198
