10
Generated by autodE on: 2022-10-07. E = -455.051691 Ha
O    -2.71418  -0.94994  -0.74918
C    -1.96663  -0.17003  -0.09498
O    -2.35388   0.74076   0.68779
C    -0.47701  -0.36981  -0.29107
C     0.47699   0.36974   0.29112
C     1.96660   0.17001   0.09499
O     2.35394  -0.74082  -0.68769
O     2.71415   0.95009   0.74902
H    -0.18562  -1.18197  -0.96591
H     0.18562   1.18188   0.96597
