18
Generated by autodE on: 2022-06-18. E = -235.968071 Ha
C     1.36867   0.43587  -1.35006
C     0.67138   0.05993  -0.06467
C     1.65452  -0.16671   1.05863
C    -0.67138  -0.05994   0.06470
C    -1.36875  -0.43572   1.35010
C    -1.65443   0.16657  -1.05869
H     2.07912  -0.35652  -1.64698
H     0.69381   0.61444  -2.19567
H     1.97576   1.34745  -1.20460
H     2.37061  -0.96300   0.78675
H     1.19359  -0.44288   2.01446
H     2.26125   0.74126   1.22650
H    -1.97636  -1.34694   1.20458
H    -0.69393  -0.61477   2.19563
H    -2.07875   0.35703   1.64716
H    -2.37129   0.96206  -0.78649
H    -1.19348   0.44379  -2.01421
H    -2.26031  -0.74183  -1.22730
