23
Generated by autodE on: 2022-06-18. E = -646.324321 Ha
C     3.40381  -0.80948   0.02603
O     2.07506  -0.92829  -0.49528
C     1.10697  -0.28632   0.17717
O     1.34469   0.42183   1.14918
C    -0.23019  -0.53912  -0.33119
N    -1.28517   0.21641   0.11155
C    -1.46810   1.38694   0.67909
C    -2.84658   1.81533   1.07823
C    -0.42571   2.34135   0.85305
N     0.28521   3.25685   0.96917
C    -0.70071  -1.68482  -1.10442
C     0.25365  -2.70174  -1.66620
O    -1.92475  -1.81488  -1.28527
H     3.73015   0.24062   0.02035
H     3.45583  -1.20002   1.05289
H     4.04099  -1.40637  -0.63699
H    -2.15716  -0.29105  -0.13406
H    -3.10956   2.76948   0.59488
H    -2.89166   1.97221   2.16845
H    -3.58351   1.04864   0.80077
H     0.88751  -3.12992  -0.87652
H    -0.32951  -3.49409  -2.15292
H     0.92821  -2.23362  -2.39813
