23
Generated by autodE on: 2022-07-27. E = -646.324296 Ha
C     3.00365  -1.23556  -1.31198
O     2.05196  -0.18947  -1.08482
C     1.02059  -0.47969  -0.27637
O     0.85445  -1.59778   0.19767
C     0.15575   0.65394   0.00252
N    -1.05599   0.46054   0.61347
C    -1.90512  -0.52361   0.80263
C    -3.13926  -0.29257   1.61911
C    -1.77523  -1.80105   0.18698
N    -1.86461  -2.84968  -0.31247
C     0.48230   2.07590  -0.06215
C     1.78106   2.56082  -0.64412
O    -0.33967   2.89321   0.38962
H     2.52224  -2.09999  -1.79189
H     3.46408  -1.55558  -0.36575
H     3.76467  -0.81004  -1.97653
H    -1.37641   1.38400   0.96527
H    -3.12079  -0.92802   2.51995
H    -3.20425   0.75954   1.93044
H    -4.03899  -0.56039   1.04331
H     2.64000   2.08780  -0.14691
H     1.82939   3.65094  -0.52555
H     1.84649   2.29914  -1.71050
