24
Generated by autodE on: 2022-06-24. E = -626.443479 Ha
C     3.02300   1.98658  -0.08218
N     3.07512   0.88719   0.86913
C     2.12381  -0.03627   1.14207
O     2.32167  -0.92267   1.98868
C     0.88834   0.14590   0.34323
N    -0.20216  -0.58860   0.37221
C    -0.32928  -1.76721   1.26270
C    -1.31782  -0.32006  -0.42554
C    -2.42683  -1.18546  -0.29006
N    -3.36784  -1.87399  -0.21171
C    -1.41079   0.77644  -1.36824
C    -2.70969   0.90150  -2.13506
O    -0.49639   1.59374  -1.56596
H     3.97558   2.52682  -0.02709
H     2.89039   1.63172  -1.11565
H     2.21394   2.69530   0.15128
H     3.92704   0.77179   1.41198
H     0.84099   0.97420  -0.35733
H     0.60049  -1.89089   1.81740
H    -0.53547  -2.64861   0.64355
H    -1.16956  -1.59583   1.94687
H    -2.91297  -0.00766  -2.72223
H    -2.63691   1.76335  -2.81047
H    -3.55982   1.04505  -1.44979
