24
Generated by autodE on: 2022-07-27. E = -626.447734 Ha
C    -0.79308  -2.60466  -1.88175
N    -1.00331  -1.47559  -0.99526
C    -0.96771  -1.63616   0.33860
O    -0.95928  -2.73511   0.89976
C    -1.10733  -0.41585   1.18847
N    -0.65929   0.78608   0.95916
C    -1.12372   1.89212   1.82157
C     0.33289   1.09209   0.00656
C     0.33301   2.39145  -0.53788
N     0.34555   3.45821  -1.01781
C     1.47026   0.21752  -0.15170
C     2.60347   0.72641  -1.01440
O     1.54120  -0.89046   0.40148
H    -1.48615  -3.42138  -1.63518
H    -0.97260  -2.28495  -2.91531
H     0.23719  -2.99011  -1.79983
H    -0.86994  -0.54033  -1.37181
H    -1.69682  -0.56087   2.09597
H    -1.62949   2.63736   1.19349
H    -1.82835   1.50133   2.56252
H    -0.25586   2.35345   2.30943
H     3.03194   1.65324  -0.60224
H     2.24102   0.95503  -2.02917
H     3.38365  -0.04332  -1.07055
