26
Generated by autodE on: 2022-06-24. E = -689.460854 Ha
C    -2.89804   1.72132   0.41057
O    -1.48103   1.84601   0.57067
C    -0.63024   0.87662   0.23493
C    -0.88367  -0.33141  -0.34318
O    -2.13291  -0.72771  -0.72664
C    -2.73684  -1.75070   0.07202
C     0.22713  -1.25483  -0.65955
O    -0.01393  -2.31970  -1.22558
C     1.62883  -0.88122  -0.30155
C     2.71037  -1.86784  -0.60950
C     1.89361   0.32149   0.26643
C     3.28470   0.74600   0.62306
C     0.78739   1.26900   0.55734
O     0.99506   2.36238   1.06527
H    -3.31466   2.66393   0.78757
H    -3.28911   0.88359   1.00540
H    -3.16666   1.59093  -0.64559
H    -3.72453  -1.94759  -0.36562
H    -2.86033  -1.40830   1.11299
H    -2.14041  -2.67483   0.05810
H     3.44878  -1.43255  -1.30328
H     2.29928  -2.77959  -1.05824
H     3.26244  -2.13759   0.30601
H     3.73183   0.04572   1.34787
H     3.93560   0.73633  -0.26657
H     3.29431   1.75325   1.05573
