13
Generated by autodE on: 2022-05-30. E = -642.534039 Ha
C     4.11489   0.35410   0.67189
O     2.67680   0.44509   0.68050
C     2.03222  -0.30610  -0.20273
O     2.54714  -1.05428  -1.00502
C     0.58968  -0.12815  -0.10109
C    -0.61358  -0.02147  -0.06586
C    -2.07547   0.10943  -0.01997
F    -2.61445  -0.82910   0.77010
F    -2.44209   1.30666   0.45720
F    -2.61247  -0.02372  -1.24061
H     4.42954  -0.67653   0.88784
H     4.46004   1.03437   1.45786
H     4.50689   0.66469  -0.30678
