36
Generated by autodE on: 2022-05-30. E = -1288.848920 Ha. Imaginary frequency = -300.7 cm-1
C    -3.82588   2.81967   2.02109
N    -2.50728   2.33917   1.64246
C    -2.29890   1.75819   0.45865
O    -3.13480   1.57336  -0.42266
C    -0.92110   1.24344   0.25161
N     0.21742   1.54303   0.06863
C     1.46045   1.18465  -0.20664
C     2.42295   1.15249   0.93039
C     1.83116   1.26663   2.31075
O     3.62259   1.01261   0.74304
C     1.78899   1.16788  -1.66972
C     3.21042   0.95652  -2.09966
O     0.88334   1.33688  -2.47525
C     0.52805  -1.20440  -0.07180
C     1.70124  -2.06852  -0.23621
F     2.65661  -1.80866   0.67383
F     1.38007  -3.36877  -0.10322
F     2.25498  -1.92465  -1.45492
C    -0.68204  -0.99047   0.06688
C    -2.09938  -1.29466   0.24482
O    -2.65740  -1.27917   1.32282
O    -2.68688  -1.55765  -0.91797
C    -4.10974  -1.77608  -0.88166
H    -3.79943   3.11751   3.07533
H    -4.57322   2.02382   1.88683
H    -4.12494   3.68493   1.40947
H    -1.72355   2.46094   2.27953
H     1.31416   2.23180   2.43328
H     2.63214   1.17864   3.05503
H     1.08352   0.47306   2.46889
H     3.23073   0.83555  -3.19064
H     3.66439   0.09151  -1.60229
H     3.80645   1.83733  -1.81111
H    -4.61363  -0.88457  -0.48310
H    -4.40906  -1.95293  -1.92056
H    -4.34776  -2.65021  -0.25980
