58
Generated by autodE on: 2022-06-03. E = -1230.302330 Ha
C    -8.93493  -4.25439   2.52344
N    -8.16546  -3.06025   2.80765
C    -8.61534  -2.05418   3.58565
O    -9.65976  -2.12714   4.24184
C    -7.71019  -0.81258   3.59079
C    -8.14812   0.25488   4.61235
C    -6.99914   1.09660   5.17996
C    -6.01304   1.71460   4.17578
C    -5.03145   0.70026   3.54702
C    -5.13146   0.46152   2.01197
C    -4.39024   1.62268   1.32154
C    -4.39518  -0.85942   1.68940
C    -6.57182   0.32423   1.53230
C    -7.61813  -0.23127   2.19804
C    -8.77987  -0.13077   1.29282
C   -10.18861  -0.48802   1.67317
O   -10.86800   0.21415   2.39332
O   -10.58898  -1.63645   1.14027
C   -11.89524  -2.10732   1.52017
N    -8.53039   0.38230   0.14231
C    -7.09646   0.75067   0.15098
C    -6.42915  -0.03671  -0.98469
C    -7.05056   2.27572  -0.03374
C    -6.41917   2.88549  -1.12281
C    -6.39447   4.28021  -1.24357
C    -7.00633   5.08343  -0.27957
C    -7.65404   4.48060   0.80549
C    -7.67668   3.09095   0.92324
H    -8.27165  -5.12970   2.47523
H    -9.66925  -4.40900   3.32303
H    -9.47306  -4.16870   1.56487
H    -7.33301  -2.88694   2.25147
H    -6.72288  -1.19788   3.87305
H    -8.89729   0.90679   4.13567
H    -8.66433  -0.24480   5.44515
H    -6.42006   0.47576   5.88708
H    -7.44708   1.90377   5.78341
H    -6.56611   2.25509   3.39098
H    -5.43419   2.48362   4.71087
H    -5.11158  -0.26169   4.07176
H    -3.99688   1.02855   3.73163
H    -3.34461   1.62671   1.66554
H    -4.83378   2.59596   1.57429
H    -4.37892   1.52884   0.22874
H    -4.90929  -1.71697   2.15073
H    -4.33400  -1.03750   0.60656
H    -3.36741  -0.82027   2.08536
H   -12.03629  -3.05846   0.99543
H   -12.66511  -1.38384   1.21795
H   -11.93069  -2.25924   2.60779
H    -6.53347  -1.11383  -0.79170
H    -5.36121   0.19739  -1.07267
H    -6.91884   0.19389  -1.94069
H    -5.92458   2.28163  -1.88345
H    -5.89010   4.73712  -2.09853
H    -6.98355   6.17178  -0.37271
H    -8.14294   5.09628   1.56437
H    -8.18717   2.63236   1.77220
