33
Generated by autodE on: 2022-06-03. E = -598.943001 Ha
C     1.36419  -1.44573  -3.30733
N     0.93856  -1.27318  -1.93255
C     1.81203  -1.27480  -0.91459
O     3.02833  -1.43146  -1.07839
C     1.25343  -1.05666   0.49882
C    -0.20257  -0.96866   0.57394
C    -1.28557  -0.42178   0.63242
C    -2.28448   0.64646   0.77059
C    -2.88044   0.63657   2.19043
C    -3.41211   0.52303  -0.26604
C    -1.47552   1.95973   0.51719
C    -0.11972   2.11272   1.24017
C     1.16069   1.56659   0.54345
C     1.80569   0.27538   1.08977
H     1.90413  -2.39659  -3.43804
H     2.03416  -0.63060  -3.62535
H     0.48034  -1.44926  -3.95675
H    -0.04203  -1.10896  -1.72508
H     1.65622  -1.89375   1.09123
H    -3.60409   1.46016   2.29643
H    -2.09969   0.76019   2.95554
H    -3.40450  -0.31118   2.38785
H    -4.08751   1.39002  -0.19273
H    -3.00704   0.48704  -1.28904
H    -4.00475  -0.38922  -0.09606
H    -1.31065   2.05485  -0.56929
H    -2.13568   2.79522   0.80577
H    -0.18952   1.70048   2.26106
H     0.03009   3.19523   1.37822
H     0.97710   1.45788  -0.53947
H     1.93161   2.34850   0.62908
H     2.88822   0.28754   0.88923
H     1.68589   0.23749   2.18407
