25
Generated by autodE on: 2022-06-03. E = -631.230902 Ha
C     4.83640  -0.14436   0.61983
O     3.71673   0.12607  -0.24134
C     2.59511   0.54284   0.35154
O     2.46364   0.71700   1.55171
C     1.55289   0.90374  -0.61196
N     0.59756   0.20549  -0.93536
C    -0.49152  -0.38852  -1.25176
C    -0.55416  -1.19665  -2.51707
C    -1.65651  -0.24704  -0.35795
C    -1.53699   0.38184   0.89925
C    -2.64813   0.52363   1.72782
C    -3.89772   0.03583   1.32583
C    -4.02401  -0.59819   0.08653
C    -2.91533  -0.74148  -0.75022
H     5.11721   0.75949   1.17937
H     4.59495  -0.95314   1.32444
H     5.65521  -0.45111  -0.04090
H    -0.86695  -2.23084  -2.30367
H    -1.29149  -0.76561  -3.21380
H     0.42537  -1.21608  -3.01153
H    -0.56311   0.74413   1.23474
H    -2.53719   1.01169   2.69894
H    -4.76627   0.14446   1.97936
H    -4.99398  -0.98462  -0.23503
H    -3.03445  -1.23398  -1.71589
