37
Generated by autodE on: 2022-05-31. E = -1289.887149 Ha
C     2.49906   2.27089   2.10193
O     2.11089   1.28457   1.12933
C     0.81477   1.00987   1.03646
O    -0.03786   1.51763   1.73034
C     0.54911   0.06099  -0.12211
C     1.79184  -0.86985  -0.43668
C     2.12920  -1.62502   0.83697
C     1.17323  -2.55287   0.96029
C     0.26654  -2.35034  -0.24015
O     1.16873  -1.87725  -1.23632
C    -0.58421  -1.01945   0.00066
C    -1.43404  -1.11063   1.26879
F    -2.36326  -0.14082   1.33487
F    -0.72080  -1.06707   2.40032
F    -2.10072  -2.28522   1.27990
C    -1.45157  -0.76154  -1.23036
C    -2.64275  -1.59587  -1.55349
N    -1.06580   0.19443  -1.98544
C     0.06733   0.89467  -1.40260
C     1.13164   1.00810  -2.40743
N     1.94853   1.09707  -3.22458
C    -0.32736   2.36684  -1.00742
C    -1.76634   2.63748  -0.72418
O     0.55403   3.19610  -0.94202
H     2.01648   3.23085   1.87116
H     2.21288   1.94227   3.11056
H     3.58791   2.35810   2.02038
H     2.60924  -0.37363  -0.96435
H     2.94194  -1.37642   1.51660
H     0.99563  -3.26069   1.76833
H    -0.32666  -3.19891  -0.59269
H    -3.44492  -1.41364  -0.82106
H    -2.39874  -2.66779  -1.50853
H    -3.01623  -1.34350  -2.55353
H    -2.16738   1.89416  -0.02151
H    -2.33902   2.53908  -1.66030
H    -1.87439   3.65195  -0.32112
