15
Generated by autodE on: 2022-05-31. E = -417.109084 Ha
C    -3.40217   1.09297  -0.35202
C    -2.08692   0.51579  -0.24282
N    -1.03526   0.03649  -0.16232
C     0.25940  -0.35463  -0.02559
C     0.57970  -1.70887  -0.23666
N     0.87110  -2.82921  -0.40683
C     1.21537   0.67221   0.33143
C     2.65356   0.23384   0.48247
O     0.86552   1.84657   0.50346
H    -4.08539   0.62573   0.37416
H    -3.31828   2.16874  -0.12710
H    -3.78928   0.96806  -1.37525
H     3.27153   1.10302   0.74238
H     2.74585  -0.53080   1.27030
H     3.02515  -0.21528  -0.45230
