22
Generated by autodE on: 2022-05-31. E = -872.696047 Ha
C     3.79196  -1.43909  -0.36265
O     2.38966  -1.50651  -0.06440
C     1.73757  -0.34247   0.02919
O     2.26304   0.74515  -0.11426
C     0.31194  -0.55824   0.32364
C    -0.71155   0.30458   0.23095
C    -0.73205   1.73670  -0.19832
F    -1.99857   2.18099  -0.30754
F    -0.10522   2.53905   0.67888
F    -0.14840   1.92052  -1.39561
C    -1.97513  -0.53925   0.53379
C    -2.16048  -1.49912  -0.66469
C    -1.14589  -2.36189  -0.56991
C    -0.35713  -1.91162   0.68017
O    -1.42792  -1.43477   1.51148
H     3.95455  -0.93917  -1.32841
H     4.32423  -0.88990   0.42741
H     4.14122  -2.47675  -0.40714
H    -2.85243   0.00344   0.89793
H    -2.93743  -1.40526  -1.42199
H    -0.85579  -3.17967  -1.22800
H     0.27342  -2.64918   1.18426
