37
Generated by autodE on: 2022-05-31. E = -1289.807859 Ha. Imaginary frequency = -280.1 cm-1
C     2.37225   2.67957   1.76380
O     2.08065   1.47810   1.03721
C     0.83578   0.98917   1.15313
O    -0.02305   1.50891   1.84603
C     0.67519  -0.22635   0.35240
C     1.86715  -1.00727  -0.25210
C     2.29040  -2.01794   0.83171
C     1.29970  -2.91425   0.87168
C     0.29205  -2.43956  -0.19459
O     1.16837  -1.86512  -1.16887
C    -0.36891  -1.13196   0.34706
C    -1.49719  -1.20120   1.32943
F    -2.35199  -0.16312   1.25548
F    -1.05380  -1.25688   2.60167
F    -2.22864  -2.31989   1.13331
C    -1.60196  -0.63020  -1.53387
C    -2.72428  -1.52267  -1.80191
N    -1.00322   0.32912  -1.91766
C    -0.04423   1.24057  -1.76905
C     1.17971   1.07833  -2.47187
N     2.19662   0.95913  -3.02719
C    -0.32097   2.54090  -1.12257
C    -1.70473   2.76170  -0.58731
O     0.58249   3.36535  -1.02639
H     1.69885   3.48858   1.44992
H     2.26661   2.51008   2.84527
H     3.41021   2.93356   1.52005
H     2.64854  -0.42243  -0.74245
H     3.18116  -1.93030   1.45226
H     1.15523  -3.77155   1.52763
H    -0.38116  -3.18594  -0.62637
H    -3.53355  -1.28143  -1.09492
H    -2.42806  -2.56736  -1.63502
H    -3.08049  -1.38219  -2.83333
H    -1.98958   1.94499   0.09081
H    -2.42902   2.76955  -1.41814
H    -1.73939   3.71996  -0.05490
