25
Generated by autodE on: 2022-07-27. E = -742.697938 Ha
C     4.99605   0.49542   0.33048
O     3.75368  -0.16350   0.61780
C     2.65254   0.38273   0.10016
O     2.63810   1.39125  -0.58886
C     1.45245  -0.38044   0.46131
N     0.32179   0.08311  -0.00726
C    -0.98283  -0.30398   0.07810
C    -1.34580  -1.49280   0.83150
C    -2.78531  -1.93180   0.93112
O    -0.46413  -2.15511   1.39914
C    -1.84226   0.62126  -0.66751
O    -1.39064   1.59605  -1.26363
O    -3.14223   0.32657  -0.64973
C    -4.01448   1.20791  -1.37037
H     5.17804   0.51405  -0.75395
H     4.98252   1.52485   0.71704
H     5.77211  -0.09025   0.83605
H     1.47926  -1.27415   1.07419
H     0.41939   0.94259  -0.57898
H    -3.40612  -1.14814   1.38916
H    -2.82162  -2.84256   1.54302
H    -3.20610  -2.13296  -0.06471
H    -3.95631   2.22724  -0.96243
H    -3.74966   1.22563  -2.43733
H    -5.02437   0.80325  -1.23714
