25
Generated by autodE on: 2022-06-19. E = -742.698733 Ha
C     4.85204   1.13913  -0.18030
O     3.43462   1.35612  -0.24012
C     2.65691   0.28910  -0.04682
O     3.07165  -0.83865   0.17043
C     1.23494   0.64129  -0.12524
N     0.38837  -0.33736   0.05804
C    -0.96746  -0.45324   0.07718
C    -1.38484  -1.83370   0.34188
C    -2.83577  -2.21512   0.41631
O    -0.50453  -2.69247   0.50605
C    -1.77749   0.73253  -0.15085
O    -1.31025   1.84569  -0.36875
O    -3.09962   0.50977  -0.10219
C    -3.94895   1.64216  -0.32000
H     5.16381   0.42466  -0.95599
H     5.31473   2.11680  -0.35647
H     5.13944   0.75388   0.80887
H     0.88984   1.65172  -0.31945
H     0.81497  -1.26992   0.23746
H    -2.90380  -3.29053   0.62485
H    -3.34754  -1.64429   1.20472
H    -3.34786  -1.98066  -0.52829
H    -4.97571   1.26574  -0.24343
H    -3.77113   2.41429   0.44270
H    -3.77659   2.07128  -1.31784
