12
Generated by autodE on: 2022-06-19. E = -381.636095 Ha
O     0.47063   2.62453   0.01693
C     0.25435   1.41701   0.00902
C     1.36751   0.43747   0.03532
C     1.12985  -0.88575   0.02714
C    -0.25435  -1.41701  -0.00878
O    -0.47062  -2.62453  -0.01705
C    -1.36751  -0.43747  -0.03535
C    -1.12985   0.88575  -0.02717
H     2.37805   0.85184   0.06195
H     1.93322  -1.62607   0.04660
H    -2.37804  -0.85184  -0.06213
H    -1.93321   1.62607  -0.04678
