16
Generated by autodE on: 2022-06-16. E = -413.524098 Ha
C     3.10241   0.05591  -0.51805
N     2.39032  -0.97218   0.20455
N     1.14681  -0.77182   0.28006
N     0.46677   0.22567  -0.20619
C    -0.89465   0.06853   0.10016
O    -1.34685  -0.89421   0.74278
N    -1.64302   1.07854  -0.38322
C    -3.07666   1.17001  -0.21862
H     4.16758  -0.20140  -0.53316
H     2.96835   1.04461  -0.04540
H     2.73040   0.14968  -1.55327
H     0.58628  -1.48496   0.79094
H    -1.15440   1.80675  -0.89421
H    -3.35775   2.08758   0.32260
H    -3.42450   0.30395   0.35650
H    -3.59070   1.17454  -1.19319
