32
Generated by autodE on: 2022-06-15. E = -635.869210 Ha
C    -3.95614   1.16733  -1.11647
C    -2.49926   0.82356  -0.82577
O    -1.61111   1.30455  -1.59221
C    -2.23831   0.01997   0.30475
C    -3.30464  -0.40983   1.27843
N    -0.89234  -0.20950   0.65502
C    -0.51082   0.09392   2.04459
C     0.00403  -0.62434  -0.23211
C    -0.42609  -1.27584  -1.49293
C     1.44690  -0.41035  -0.00099
C     1.92731   0.87406   0.31994
C     3.29290   1.09407   0.49999
C     4.19922   0.03698   0.36627
C     3.73233  -1.24060   0.03848
C     2.36853  -1.46233  -0.15585
H    -4.54659   0.26518  -1.34739
H    -3.98928   1.84034  -1.98426
H    -4.44515   1.66388  -0.26296
H    -4.24189  -0.63217   0.74913
H    -3.54671   0.34581   2.05025
H    -3.01745  -1.33318   1.80556
H     0.47037  -0.33063   2.27675
H    -1.25322  -0.35532   2.71448
H    -0.50184   1.18011   2.20915
H     0.34384  -1.97375  -1.84803
H    -1.39105  -1.78873  -1.35249
H    -0.59042  -0.50618  -2.26909
H     1.22363   1.70417   0.40277
H     3.65174   2.09777   0.73934
H     5.26823   0.20966   0.51070
H     4.43530  -2.07000  -0.06776
H     2.01147  -2.46272  -0.40864
