35
Generated by autodE on: 2022-06-15. E = -919.940262 Ha
C     0.20152   4.00283  -2.11743
N     0.45493   3.10233  -1.00983
C    -0.05053   1.86496  -0.98224
O    -0.75680   1.39802  -1.87966
C     0.37090   0.98777   0.23397
C     0.43674   1.80137   1.53983
O     1.20487   2.76901   1.63136
N    -0.33753   1.39680   2.55089
C    -0.31767   2.06521   3.83938
C    -0.48853  -0.18521   0.29187
C    -0.88671  -1.32020   0.15699
C    -0.75912  -2.72110  -0.24039
F    -0.44008  -3.50085   0.87593
C    -2.00975  -3.27927  -0.79885
N    -2.97682  -3.72778  -1.25307
C     0.39353  -2.81549  -1.26581
C     1.70226  -2.13219  -0.82517
C     1.91362  -0.63274  -1.17557
C     1.81197   0.40274  -0.03873
H     0.56898   3.57893  -3.06521
H     0.72008   4.95059  -1.92858
H    -0.87565   4.20366  -2.23202
H     0.99762   3.40364  -0.19990
H    -0.93418   0.58477   2.42477
H    -1.07480   1.60673   4.48625
H    -0.54277   3.13654   3.72743
H     0.66818   1.97132   4.32148
H     0.56000  -3.89179  -1.42867
H     0.03227  -2.39108  -2.21528
H     2.50434  -2.69798  -1.32207
H     1.85309  -2.29804   0.25413
H     2.93719  -0.53777  -1.56824
H     1.25174  -0.34296  -2.00776
H     2.16496  -0.04406   0.90390
H     2.46288   1.26177  -0.25132
