50
Generated by autodE on: 2022-10-21. E = -1406.169178 Ha
C     3.68770  -2.61334  -1.57324
O     2.64784  -1.95255  -0.83029
C     1.40423  -2.18710  -1.21342
O     1.06604  -2.95179  -2.08419
C     0.42592  -1.34797  -0.40202
O    -0.92473  -1.97590  -0.53417
C    -1.62673  -1.47823   0.51108
O    -2.78160  -1.73581   0.71746
C    -0.61691  -0.55910   1.28185
C    -0.93862  -0.24992   2.74768
C     0.20874   0.00967   3.68364
O    -2.09265  -0.29305   3.13418
C    -0.47407   0.64245   0.29257
C     0.20527   0.13729  -0.75252
C     0.58506   0.59007  -2.13591
F    -0.02189  -0.31195  -2.99499
F     1.94093   0.35257  -2.28994
C     0.27702   1.97796  -2.63232
C     1.04544   3.11397  -1.95816
C     0.75733   3.30678  -0.46361
C    -0.73751   3.20043  -0.13413
C    -1.16137   1.94806   0.65263
C    -2.68150   1.74931   0.52606
O    -0.72893   2.12904   2.01988
C    -1.53212   2.91456   2.87967
N     0.64453  -1.29012   1.01919
C     0.78599  -2.59854   1.67115
H     4.63028  -2.29986  -1.11179
H     3.56915  -3.70356  -1.50568
H     3.64980  -2.29819  -2.62551
H    -0.12597   0.71042   4.45996
H     1.09327   0.39964   3.16841
H     0.47847  -0.93416   4.18548
H    -0.81020   2.11834  -2.56276
H     0.52310   1.95303  -3.70474
H     2.12505   2.96728  -2.11787
H     0.77277   4.03640  -2.49601
H     1.32432   2.57589   0.13422
H     1.14126   4.29347  -0.16404
H    -1.34482   3.27324  -1.04657
H    -1.05974   4.04855   0.48678
H    -3.05745   0.97848   1.20914
H    -2.91678   1.44877  -0.50443
H    -3.20552   2.69299   0.73390
H    -1.79935   3.88546   2.43015
H    -0.93247   3.10527   3.78072
H    -2.45466   2.38664   3.17333
H     0.85243  -2.46085   2.75542
H    -0.03971  -3.29840   1.45485
H     1.72777  -3.05252   1.33739
