8
Generated by autodE on: 2022-10-21. E = -2765.505922 Ha
C    -3.66317   0.07545   0.19435
O    -2.60921  -0.75559   0.74250
C    -1.39627  -0.43405   0.41907
C    -0.24534  -0.16857   0.14205
Br    1.46842   0.22041  -0.26484
H    -4.60327  -0.34105   0.57371
H    -3.53647   1.11266   0.53761
H    -3.63916   0.03097  -0.90436
