68
Generated by autodE on: 2022-06-11. E = -1481.533908 Ha
C    -8.32962  -2.78481  -5.38159
N    -7.35542  -1.95045  -4.70658
C    -6.75035  -0.92661  -5.33415
O    -6.99231  -0.68390  -6.52095
C    -5.72890  -0.05775  -4.53616
C    -5.25324  -0.78123  -3.24770
C    -4.72279  -2.08383  -3.33483
C    -4.23439  -2.74567  -2.20727
C    -4.25520  -2.11850  -0.95741
C    -4.76415  -0.82315  -0.85853
C    -5.25242  -0.16372  -1.99116
C    -4.45188   0.02226  -5.43682
C    -4.47123   0.68801  -6.81981
C    -5.21041   2.01293  -6.97686
C    -4.62355   3.20773  -6.23600
C    -4.53361   3.12381  -4.68670
C    -4.19834   4.54375  -4.11239
C    -3.50031   5.53472  -4.99874
O    -4.41208   4.80346  -2.94192
C    -3.18996   2.47081  -4.21551
C    -3.04977   2.07150  -2.77197
O    -2.24227   2.42174  -4.97748
C    -5.83390   2.54626  -4.11423
C    -6.37237   1.30283  -4.17465
C    -7.86493   1.36647  -3.75462
C    -8.27627   0.56548  -2.51391
C    -8.85157   1.08134  -4.90028
O    -8.06994   2.75644  -3.43917
C    -6.87896   3.52530  -3.57222
C    -7.21443   4.68486  -4.51207
C    -6.58809   3.93253  -2.09189
C    -6.99854   5.30205  -1.63366
O    -6.20563   3.08415  -1.30189
H    -7.89568  -3.25318  -6.27876
H    -9.20861  -2.19951  -5.69806
H    -8.65833  -3.57251  -4.69250
H    -7.13983  -2.13823  -3.73476
H    -4.69225  -2.60054  -4.29506
H    -3.83371  -3.75704  -2.30940
H    -3.87348  -2.63435  -0.07318
H    -4.77906  -0.30934   0.10576
H    -5.61463   0.85481  -1.88593
H    -3.65976   0.44560  -4.81753
H    -4.12747  -1.01592  -5.59334
H    -4.89606  -0.02052  -7.54260
H    -3.41544   0.83150  -7.10914
H    -6.26902   1.87995  -6.71292
H    -5.20243   2.27751  -8.04763
H    -5.23202   4.08626  -6.48712
H    -3.61240   3.40138  -6.61625
H    -3.17193   6.38399  -4.38706
H    -2.64025   5.07377  -5.50427
H    -4.18512   5.89148  -5.78252
H    -2.10782   2.49309  -2.39101
H    -2.96620   0.97673  -2.71686
H    -3.89070   2.39181  -2.15092
H    -8.11834  -0.51115  -2.64177
H    -7.72940   0.90318  -1.62682
H    -9.35065   0.73103  -2.33910
H    -9.80940   1.54310  -4.61815
H    -8.51145   1.53001  -5.84290
H    -9.03383   0.01249  -5.05308
H    -6.41590   5.43043  -4.60789
H    -8.11106   5.20246  -4.14442
H    -7.44040   4.27899  -5.50798
H    -6.71626   5.44082  -0.58186
H    -6.55446   6.09005  -2.25569
H    -8.09430   5.38597  -1.73023
