21
Generated by autodE on: 2022-06-11. E = -424.561422 Ha
C     1.70078   1.72035   0.46446
C     1.77331   0.22826   0.16298
O     2.89988  -0.33804   0.13374
C     0.56869  -0.47564  -0.06438
C     0.50582  -1.92566  -0.41298
O    -0.53527   0.32955   0.00006
C    -1.80210   0.17445  -0.08448
C    -2.59724   1.42101   0.05632
C    -2.47647  -1.14088  -0.25801
H     1.19919   2.27639  -0.34317
H     2.72478   2.10075   0.58010
H     1.13892   1.91992   1.39095
H    -0.09138  -2.52963   0.28770
H     1.53882  -2.29682  -0.37583
H     0.12340  -2.11018  -1.43125
H    -1.94837   2.29009   0.22457
H    -3.20622   1.58473  -0.85060
H    -3.31010   1.32117   0.89411
H    -2.10327  -1.68802  -1.13454
H    -2.31300  -1.77463   0.62965
H    -3.55588  -0.98145  -0.37355
