47
Generated by autodE on: 2022-06-11. E = -1056.862517 Ha
C    -2.70612   1.93094   3.24620
N    -1.80421   1.23470   2.34908
C    -0.57036   1.69342   2.08818
O    -0.13343   2.74070   2.57347
C     0.30310   0.79974   1.17559
C     1.03186  -0.21262   2.07855
C     1.78790   0.25645   3.16530
C     2.48288  -0.63428   3.98524
C     2.43510  -2.00960   3.73239
C     1.68364  -2.48345   2.65482
C     0.98577  -1.59070   1.83407
C    -0.47368   0.14847   0.12167
C    -0.76051  -0.26641  -0.97979
C    -0.57515  -0.54520  -2.40033
C    -1.42890   0.44359  -3.25023
C    -1.04002   0.63491  -4.68566
O    -2.37761   1.01109  -2.74564
C    -1.05917  -1.95800  -2.82771
C    -2.17951  -2.55545  -2.03293
O    -0.54944  -2.51001  -3.78283
C     0.95338  -0.38888  -2.65959
C     1.58371   0.92264  -2.14587
C     2.14415   0.96605  -0.69532
C     1.32954   1.68810   0.39663
H    -2.30228   1.96797   4.27090
H    -3.66685   1.40258   3.26403
H    -2.87542   2.96579   2.91096
H    -2.10418   0.36476   1.92070
H     1.82664   1.32663   3.37464
H     3.06507  -0.25095   4.82669
H     2.98070  -2.70650   4.37292
H     1.63781  -3.55506   2.44619
H     0.40352  -1.97094   0.99357
H    -1.86198   1.12145  -5.22623
H    -0.14945   1.28369  -4.72729
H    -0.76961  -0.31906  -5.15954
H    -1.80828  -2.81803  -1.02863
H    -2.56435  -3.45364  -2.53238
H    -2.97895  -1.81107  -1.89122
H     1.45325  -1.24966  -2.18881
H     1.12569  -0.48717  -3.73894
H     0.88350   1.76203  -2.29800
H     2.43100   1.12691  -2.81837
H     2.39233  -0.05574  -0.36127
H     3.10773   1.49585  -0.74683
H     2.01399   2.11826   1.14083
H     0.77796   2.53119  -0.04802
