35
Generated by autodE on: 2022-10-06. E = -1044.683410 Ha
C     3.40417   1.64768  -1.68962
N     2.35199   0.90553  -1.03089
C     2.45515   0.52693   0.24804
O     3.45374   0.77345   0.94826
C     1.24918  -0.20405   0.83959
C     0.70009  -1.39786   0.02708
C     0.66971  -2.71544   0.83722
O     0.80706  -3.77887   0.17762
O     0.45688  -2.64027   2.07842
C    -0.75835  -1.01201  -0.32399
C    -0.96770  -0.37776  -1.71915
O     0.00379   0.19985  -2.28903
O    -2.12701  -0.46091  -2.19364
C    -1.11379  -0.02540   0.81784
C    -2.31609   0.84156   0.46828
O    -3.46865   0.45671   0.69940
N    -2.02648   2.00481  -0.13954
C    -3.03612   2.79537  -0.81003
N     0.11743   0.72428   1.02065
C     0.17647   1.45625   2.27340
H     3.11869   1.82178  -2.73536
H     4.35974   1.09770  -1.67475
H     3.57904   2.62472  -1.20770
H     1.48033   0.66028  -1.53805
H     1.58898  -0.57625   1.81935
H     1.27036  -1.57626  -0.89123
H    -1.43178  -1.87773  -0.27861
H    -1.39889  -0.61382   1.71185
H    -1.04182   2.15121  -0.34956
H    -2.62852   3.78640  -1.04815
H    -3.91520   2.92004  -0.16216
H    -3.36475   2.31073  -1.74614
H     0.10272   0.78493   3.15519
H     1.12858   2.00335   2.34344
H    -0.64027   2.19066   2.33053
