25
Generated by autodE on: 2022-10-13. E = -589.549577 Ha
C     4.72991  -1.42914  -0.07457
N     3.29286  -1.47641  -0.20805
C     2.47406  -0.41372   0.05792
O     2.93673   0.68872   0.41613
C     1.06898  -0.73254  -0.12282
N     0.02706   0.10553   0.02762
C     0.28018   1.52146   0.38731
C    -1.23715  -0.32512  -0.14460
C    -2.47833   0.42645  -0.04715
O    -2.61957   1.63934   0.22417
N    -3.57926  -0.34115  -0.29067
C    -4.91230   0.21682  -0.25510
H     5.02610  -0.40678   0.18813
H     5.08931  -2.11033   0.71554
H     5.22937  -1.70795  -1.01690
H     2.86628  -2.35240  -0.48894
H     0.80390  -1.75266  -0.40235
H    -0.67554   2.04543   0.40341
H     0.96279   1.95424  -0.34991
H     0.76407   1.55254   1.36896
H    -1.32071  -1.38264  -0.39625
H    -3.46290  -1.31925  -0.52936
H    -5.63683  -0.58355  -0.45052
H    -5.04792   1.00518  -1.01484
H    -5.13881   0.66258   0.72740
