10
Generated by autodE on: 2022-10-06. E = -455.051707 Ha
O    -2.15054  -0.70591  -1.92566
C    -1.78517  -0.25352  -0.80488
O    -2.54999   0.16481   0.10751
C    -0.28970  -0.22102  -0.56233
C     0.28972   0.22121   0.56225
C     1.78518   0.25374   0.80479
O     2.54998  -0.16491  -0.10747
O     2.15053   0.70570   1.92576
H     0.34018  -0.59027  -1.37874
H    -0.34017   0.59045   1.37865
