33
Generated by autodE on: 2022-07-27. E = -860.420259 Ha
C     3.02573  -2.04398   1.23700
N     2.33666  -0.86464   0.74573
C     2.49052  -0.44755  -0.52145
O     3.33497  -0.89292  -1.30195
C     1.66563   0.74076  -0.93468
C     2.31677   1.80802  -1.72202
O     0.43231   0.92075  -0.63228
C    -0.54182   0.13039  -0.06832
C    -0.56961  -1.28102  -0.34215
O    -1.36471  -2.09032   0.13542
O     0.35535  -1.65836  -1.25936
C     0.49411  -3.05402  -1.52272
C    -1.60039   0.91119   0.55266
C    -1.43295   2.30584   0.74314
C    -2.43673   3.08078   1.32149
C    -3.63487   2.49716   1.74756
C    -3.80949   1.11913   1.57984
C    -2.81689   0.33452   0.99377
H     2.88352  -2.11318   2.32211
H     4.10078  -1.97727   1.01926
H     2.63340  -2.96066   0.76509
H     1.54915  -0.51127   1.28455
H     3.28059   2.09124  -1.26833
H     2.54448   1.42615  -2.73378
H     1.65725   2.68111  -1.80682
H     0.62672  -3.61534  -0.58632
H     1.38904  -3.15291  -2.14876
H    -0.38615  -3.44233  -2.05687
H    -0.50076   2.78270   0.43869
H    -2.27442   4.15411   1.45002
H    -4.41635   3.10512   2.20884
H    -4.73684   0.64248   1.90832
H    -2.97361  -0.73460   0.87198
