33
Generated by autodE on: 2022-06-19. E = -860.431742 Ha
C    -4.15787   2.27171   0.31034
N    -2.93473   1.50841   0.18555
C    -2.95193   0.20786  -0.17564
O    -4.00209  -0.42254  -0.37939
C    -1.63344  -0.45541  -0.31789
C    -1.50421  -1.84521  -0.79189
O    -0.63130   0.33329  -0.08579
C     0.69756   0.23462  -0.08190
C     1.35885   1.52652  -0.05275
O     2.57491   1.68245  -0.00125
O     0.49807   2.57054  -0.09846
C     1.08044   3.87532  -0.04121
C     1.42173  -1.02631   0.07585
C     2.59989  -1.27763  -0.65833
C     3.31986  -2.45471  -0.46245
C     2.88474  -3.40539   0.46916
C     1.72751  -3.16171   1.21404
C     1.00387  -1.98286   1.02619
H    -3.91570   3.27083   0.69238
H    -4.67326   2.37970  -0.65901
H    -4.85662   1.78490   1.00835
H    -2.03926   1.97471   0.29109
H    -1.18307  -2.54035   0.00461
H    -0.74441  -1.90791  -1.58850
H    -2.47771  -2.17683  -1.17197
H     1.63336   4.01809   0.89945
H     1.76362   4.03636  -0.88834
H     0.24376   4.58218  -0.09434
H     2.93898  -0.54646  -1.39266
H     4.22417  -2.63740  -1.04786
H     3.44916  -4.32894   0.61681
H     1.38837  -3.88877   1.95560
H     0.12620  -1.78435   1.64366
