44
Generated by autodE on: 2022-06-20. E = -979.658465 Ha
C    -5.02842   1.88466  -1.08023
O    -3.74831   1.23281  -0.99797
C    -3.23874   1.06716   0.21642
O    -3.76061   1.42802   1.24582
C    -1.88910   0.38066   0.13868
C    -0.74450   1.15867  -0.51786
C     0.32673   0.03391  -0.73142
C     0.57870  -0.19574  -2.22215
C     1.59051   0.32168   0.04002
C     2.85517   0.16849  -0.39990
C     4.02293   0.46017   0.41609
C     5.32222   0.32500   0.05677
C     5.78796  -0.16260  -1.28658
C     6.42587   0.66583   1.01890
C    -0.45925  -1.21125  -0.11343
C     0.07668  -2.58177  -0.43522
C    -0.55003  -0.91220   1.39135
O     0.03136  -1.40617   2.32587
O    -1.44816   0.09269   1.52326
N    -1.84752  -0.89625  -0.53247
C    -2.87238  -1.85995  -0.13451
H    -4.96419   2.90006  -0.66464
H    -5.78369   1.30630  -0.52980
H    -5.27748   1.92256  -2.14634
H    -1.07920   1.58702  -1.46998
H    -0.40335   1.96712   0.13978
H     1.00680   0.71385  -2.66973
H    -0.36131  -0.42282  -2.74080
H     1.27887  -1.02328  -2.40028
H     1.44674   0.69260   1.06178
H     3.02684  -0.19024  -1.41740
H     3.81214   0.82438   1.42885
H     6.42141  -1.05939  -1.16817
H     4.97061  -0.41121  -1.97564
H     6.42473   0.59943  -1.76969
H     6.03995   1.02032   1.98599
H     7.07125  -0.21218   1.20126
H     7.08470   1.44661   0.59825
H     1.14566  -2.62125  -0.17950
H    -0.43990  -3.35710   0.14819
H    -0.03664  -2.81064  -1.50295
H    -2.89899  -2.06491   0.95213
H    -2.70008  -2.80716  -0.66162
H    -3.85799  -1.48324  -0.44219
