23
Generated by autodE on: 2022-06-20. E = -351.521384 Ha
C    -3.72230  -0.52882  -0.40504
C    -2.58384   0.10233  -0.04256
C    -2.61631   1.44286   0.64602
C    -1.28791  -0.51597  -0.31527
C    -0.07799   0.01116  -0.00052
C     1.17925  -0.64672  -0.29264
C     2.42556  -0.19053  -0.00941
C     3.64050  -0.99492  -0.37654
C     2.71699   1.11420   0.67613
H    -4.70495  -0.08916  -0.21272
H    -3.69542  -1.50211  -0.90473
H    -3.64856   1.79209   0.78947
H    -2.07131   2.20305   0.06201
H    -2.12659   1.39439   1.63283
H    -1.31838  -1.49019  -0.81798
H    -0.03933   0.98182   0.50124
H     1.09919  -1.61752  -0.79669
H     3.37885  -1.93940  -0.87578
H     4.24090  -1.22876   0.52108
H     4.30460  -0.41818  -1.04525
H     3.28721   0.93779   1.60537
H     1.81828   1.69043   0.93090
H     3.36063   1.74540   0.03823
