44
Generated by autodE on: 2022-06-20. E = -979.618021 Ha. Imaginary frequency = -439.9 cm-1
C    -3.91595   3.12291   1.32115
O    -2.87836   2.13431   1.21111
C    -3.12032   1.10779   0.39970
O    -4.14643   0.95585  -0.23481
C    -1.93596   0.22170   0.27595
C    -0.97704   0.94174  -1.30119
C     0.21754   0.20208  -1.43732
C     0.30805  -0.92524  -2.43428
C     1.40447   0.67190  -0.77319
C     2.64248   0.09909  -0.81723
C     3.77863   0.62165  -0.09595
C     5.04160   0.11988  -0.07310
C     5.47880  -1.10347  -0.82724
C     6.11798   0.78031   0.74064
C    -0.90736  -1.73184   0.34791
C    -0.52206  -3.12703   0.04331
C    -0.18674  -0.83113   1.18574
O     0.85797  -0.93461   1.81724
O    -0.96905   0.33292   1.24508
N    -2.07722  -1.12741  -0.00247
C    -3.04995  -1.67774  -0.93256
H    -4.12847   3.56387   0.33678
H    -4.83183   2.67199   1.72861
H    -3.53044   3.88624   2.00615
H    -1.75633   0.80876  -2.05850
H    -0.89351   1.96139  -0.91309
H     0.81890  -0.58045  -3.35230
H     0.88436  -1.78368  -2.05921
H    -0.68872  -1.28388  -2.72550
H     1.27801   1.56156  -0.14543
H     2.78781  -0.79857  -1.42439
H     3.58452   1.52104   0.50139
H     5.87628  -1.86253  -0.12990
H     6.30871  -0.85611  -1.51308
H     4.67679  -1.56800  -1.41547
H     6.53590   0.07755   1.48436
H     5.74992   1.66984   1.27294
H     6.96603   1.08340   0.09989
H     0.50212  -3.29365   0.40339
H    -1.18488  -3.85362   0.54330
H    -0.55245  -3.33553  -1.03787
H    -4.06631  -1.50047  -0.56418
H    -2.87693  -2.75491  -1.02478
H    -2.94280  -1.20574  -1.92097
