39
Generated by autodE on: 2022-06-19. E = -1088.448395 Ha
C     2.77587   0.37002   2.17390
O     1.76938  -0.21191   1.32990
C     2.09785  -0.47575   0.06743
O     3.20752  -0.29524  -0.38929
C     0.89844  -0.96768  -0.76161
C     1.39713  -1.93538  -1.83167
N    -0.15426  -1.55123   0.07783
C    -1.28862  -0.64382   0.20683
C    -2.48233  -1.15192  -0.65226
C    -2.72511  -2.63232  -0.65309
O    -3.17445  -0.37568  -1.28335
C    -1.79017  -0.60543   1.67268
C    -3.10982   0.05314   1.94091
O    -1.15870  -1.19631   2.52878
C    -0.81437   0.72127  -0.34278
C    -0.24465   1.69091   0.67061
O    -0.66037   1.76649   1.81723
C     0.80037   2.62535   0.19095
C     1.42669   2.47796  -0.99232
C     1.14167   1.34911  -1.90393
O     1.67799   1.27120  -2.99953
C     0.19162   0.28070  -1.41187
H     3.15678   1.29662   1.72262
H     2.27723   0.58264   3.12590
H     3.60214  -0.33954   2.32004
H     1.89482  -2.79944  -1.36678
H     2.10825  -1.44177  -2.50774
H     0.53920  -2.29395  -2.41716
H     0.18319  -1.77486   1.01327
H    -2.52399  -3.07558   0.33287
H    -3.75503  -2.83720  -0.97326
H    -2.02730  -3.10299  -1.36351
H    -3.29509   0.90524   1.27565
H    -3.16298   0.35965   2.99340
H    -3.90153  -0.69485   1.75829
H    -1.65987   1.25280  -0.80828
H     1.05397   3.43985   0.87388
H     2.19354   3.18184  -1.32510
H    -0.35088  -0.09423  -2.29049
