27
Generated by autodE on: 2022-07-27. E = -706.769854 Ha
C     4.58047  -0.39041  -0.67056
O     3.19601  -0.53093  -1.02778
C     2.30314  -0.07570  -0.15613
O     2.58201   0.44247   0.91263
C     0.90453  -0.26330  -0.62946
C     0.59800  -0.79061  -1.98112
N     0.01874   0.18343   0.22837
C    -1.35115   0.23653   0.27146
C    -2.22500  -0.76320  -0.33138
C    -1.71205  -2.17627  -0.52982
O    -3.41626  -0.52532  -0.56144
C    -1.80386   1.26422   1.20923
C    -3.27096   1.50734   1.43419
O    -0.95779   1.92516   1.83529
H     4.78803  -0.92784   0.26584
H     5.14979  -0.82894  -1.49755
H     4.83591   0.67210  -0.55005
H    -0.40102  -0.47016  -2.30709
H     1.35050  -0.41336  -2.68762
H     0.63841  -1.89079  -2.02105
H     0.42919   0.71802   1.01788
H    -2.44189  -2.84432  -0.04689
H    -1.69686  -2.43303  -1.59980
H    -0.72009  -2.36145  -0.10042
H    -3.73892   1.89304   0.51612
H    -3.38356   2.24040   2.24406
H    -3.79887   0.57640   1.68763
