27
Generated by autodE on: 2022-06-19. E = -706.765939 Ha
C     2.60473  -0.86711   2.76436
O     2.17256   0.17436   1.87347
C     1.59033  -0.21766   0.74634
O     1.50586  -1.36745   0.36817
C     1.21716   0.95104  -0.11410
C     2.17837   2.07631  -0.24718
N     0.12989   0.92241  -0.83166
C    -1.01021   0.10793  -0.73342
C    -1.40051  -0.31834   0.58692
C    -2.71197  -1.03604   0.79332
O    -0.68862  -0.07634   1.58376
C    -1.78837  -0.05906  -1.94197
C    -1.27533   0.59174  -3.21622
O    -2.84092  -0.71466  -1.98465
H     3.35656  -1.50294   2.27585
H     3.03976  -0.35943   3.63236
H     1.74363  -1.47847   3.06979
H     3.19572   1.69378  -0.42431
H     2.20745   2.64378   0.69822
H     1.88618   2.75417  -1.06147
H     0.07162   1.67564  -1.52341
H    -3.55813  -0.47121   0.37863
H    -2.70123  -2.00739   0.27623
H    -2.84827  -1.19353   1.87186
H    -1.95674   0.33454  -4.03688
H    -0.25829   0.25312  -3.46880
H    -1.24684   1.69141  -3.12072
