39
Generated by autodE on: 2022-06-19. E = -1088.402564 Ha. Imaginary frequency = -305.8 cm-1
C     4.50034  -1.17336  -0.48538
O     3.11804  -1.39940  -0.81011
C     2.22551  -1.05464   0.10622
O     2.50465  -0.62083   1.21060
C     0.81660  -1.18426  -0.38304
C     0.52767  -2.06413  -1.56128
N    -0.07480  -0.99263   0.61796
C    -1.37362  -0.62023   0.42647
C    -2.31586  -1.47972  -0.39282
C    -2.27738  -2.95616  -0.10068
O    -3.15018  -0.99055  -1.13304
C    -1.96598   0.01671   1.65737
C    -3.43724   0.28579   1.68213
O    -1.22208   0.30386   2.58644
C    -0.93047   1.05264  -0.95335
C    -1.11693   2.17119  -0.00652
O    -2.21118   2.70291   0.18467
C     0.08347   2.64514   0.72559
C     1.32138   2.33464   0.30169
C     1.52745   1.51646  -0.92011
O     2.63497   1.47900  -1.46402
C     0.37454   0.75977  -1.41933
H     4.79033  -1.77818   0.38519
H     5.06888  -1.47906  -1.37050
H     4.66465  -0.10847  -0.27169
H    -0.47015  -1.88393  -1.98068
H     1.26786  -1.88540  -2.34865
H     0.59389  -3.12297  -1.25993
H     0.33173  -0.56605   1.46272
H    -2.85938  -3.10888   0.82585
H    -2.75970  -3.51235  -0.91529
H    -1.26615  -3.33282   0.09247
H    -3.76265   0.76409   0.74902
H    -3.68025   0.91569   2.54642
H    -3.97524  -0.67399   1.76511
H    -1.79211   0.83556  -1.58448
H    -0.09621   3.30107   1.58081
H     2.22041   2.71791   0.79040
H     0.50311   0.32127  -2.40844
