57
Generated by autodE on: 2022-06-09. E = -1469.891427 Ha
C     3.56829  -0.77681  -2.89096
N     2.50637  -0.87002  -1.91110
C     2.53428  -0.18332  -0.76074
O     3.50274   0.48094  -0.38565
C     1.22179  -0.24065   0.06973
C     1.55710  -0.07169   1.58109
O     0.95920   0.74849   2.28619
N     2.47761  -0.90353   2.08832
C     2.71909  -0.98034   3.51652
N     0.48038  -1.45590  -0.20759
C     1.07238  -2.76046   0.04651
C    -0.96160  -1.30014  -0.04979
C    -1.69533  -2.25433  -1.01458
C    -1.41990  -1.70331   1.39367
C    -2.87537  -2.03702   1.62211
O    -0.60050  -1.89513   2.27295
C    -1.22146   0.24213  -0.37007
C    -2.21644   0.82962   0.65320
C    -3.47738   1.50439   0.19431
O    -2.00989   0.67451   1.84377
C    -1.62503   0.43931  -1.88958
C    -1.79238   1.91963  -2.20314
C    -0.55269   2.41703  -2.23059
C     0.35065   1.23085  -1.94622
O    -0.37266   0.15300  -2.53109
C     0.23082   0.89262  -0.38716
C     0.51284   2.21488   0.31082
O     1.61430   2.72909   0.27808
O    -0.56580   2.83653   0.77321
C    -0.37903   4.14579   1.32552
H     3.43945  -1.56960  -3.63852
H     4.54656  -0.89975  -2.40456
H     3.56207   0.20012  -3.40477
H     1.62046  -1.30674  -2.15470
H     2.95471  -1.55842   1.48051
H     3.03903  -0.00613   3.91746
H     3.50900  -1.71777   3.70405
H     1.80692  -1.28813   4.05314
H     1.01835  -3.08467   1.09754
H     2.12632  -2.75689  -0.25913
H     0.56975  -3.51799  -0.57141
H    -1.25551  -2.18678  -2.01646
H    -1.60679  -3.29409  -0.67178
H    -2.76424  -2.01877  -1.07693
H    -3.12468  -1.84733   2.67436
H    -3.56435  -1.49095   0.96596
H    -3.00849  -3.11398   1.42576
H    -3.94628   0.97336  -0.64646
H    -3.25007   2.52866  -0.13586
H    -4.17111   1.55712   1.04314
H    -2.41794  -0.22208  -2.24249
H    -2.73917   2.43780  -2.33489
H    -0.21987   3.44632  -2.35792
H     1.37359   1.30295  -2.32041
H     0.02731   4.82796   0.56515
H     0.30523   4.09997   2.18462
H    -1.37227   4.47956   1.64668
