33
Generated by autodE on: 2022-06-09. E = -781.614808 Ha
C    -1.32676   3.17474  -1.68027
N    -1.34294   1.82770  -1.15849
C    -0.34923   1.35986  -0.36861
O     0.66608   2.05483  -0.13245
C    -0.54191   0.02089   0.20239
C    -1.68908  -0.82564  -0.08251
O    -2.72530  -0.41586  -0.66329
N    -1.60234  -2.13968   0.27047
C    -2.68332  -3.06516   0.00099
N     0.41379  -0.39525   1.13793
C    -0.02593  -0.75480   2.50080
C     1.70111  -0.20729   0.90687
C     2.67980  -0.12834   2.02723
C     2.23416  -0.12225  -0.49013
C     1.54644  -0.83184  -1.63306
O     3.31693   0.42199  -0.67179
H    -2.08025   3.26174  -2.47446
H    -1.55080   3.93249  -0.90797
H    -0.33956   3.41406  -2.10233
H    -2.18460   1.24788  -1.19856
H    -0.70896  -2.52101   0.55872
H    -3.63204  -2.69110   0.41446
H    -2.83095  -3.23095  -1.08025
H    -2.45032  -4.02814   0.47337
H     0.18007   0.08953   3.17413
H     0.51204  -1.64320   2.85533
H    -1.10198  -0.94202   2.49004
H     2.33898   0.57181   2.80544
H     2.80919  -1.11368   2.50620
H     3.64905   0.20385   1.64011
H     0.81447  -1.58033  -1.30875
H     1.03779  -0.10472  -2.28385
H     2.33885  -1.31029  -2.22836
