57
Generated by autodE on: 2022-06-09. E = -1469.821343 Ha. Imaginary frequency = -164.0 cm-1
C     4.45344   0.67838  -1.72005
N     3.56942   0.15570  -0.70067
C     2.50548  -0.61064  -1.03109
O     2.36646  -1.05267  -2.18039
C     1.48805  -0.79417   0.06534
C     2.08929  -0.68836   1.45110
O     2.67338   0.32523   1.85792
N     2.16466  -1.85979   2.11714
C     2.65626  -1.90369   3.48067
N     0.44446  -1.69504  -0.13202
C     0.59703  -2.77454  -1.14107
C    -0.77254  -1.60485   0.47497
C    -1.88342  -2.45046  -0.07297
C    -0.96387  -1.02392   1.83240
C    -2.26314  -1.32032   2.54356
O    -0.10231  -0.37315   2.41350
C    -1.20403   0.75435  -0.32852
C    -2.21864   1.22192   0.63662
C    -3.66193   1.03401   0.21794
O    -1.96402   1.74672   1.71784
C    -1.67315   0.42771  -1.77963
C    -1.80756   1.79225  -2.48513
C    -0.54850   2.21662  -2.63722
C     0.32195   1.09316  -2.05292
O    -0.46485  -0.06225  -2.36058
C     0.14510   1.14202  -0.50617
C     0.98271   2.14674   0.17801
O     1.86908   2.74196  -0.42284
O     0.70412   2.37529   1.45560
C     1.53626   3.31405   2.14270
H     4.77646  -0.12130  -2.40068
H     5.33824   1.11156  -1.23592
H     3.96440   1.46462  -2.32141
H     3.54790   0.60895   0.21217
H     1.58839  -2.63082   1.79668
H     2.00115  -1.33652   4.16303
H     2.69589  -2.94884   3.81125
H     3.66628  -1.47386   3.53966
H     0.08836  -3.66536  -0.75901
H     0.17925  -2.48495  -2.11038
H     1.65686  -3.00179  -1.25204
H    -1.86627  -2.48573  -1.16794
H    -2.85119  -2.04224   0.23207
H    -1.83073  -3.48676   0.30432
H    -2.34688  -2.40494   2.72229
H    -2.24919  -0.79124   3.50408
H    -3.15148  -1.01835   1.97484
H    -3.86266  -0.00351  -0.08675
H    -3.89604   1.67528  -0.64706
H    -4.31623   1.31180   1.05388
H    -2.49526  -0.28425  -1.88803
H    -2.74580   2.29425  -2.71839
H    -0.16911   3.16041  -3.02648
H     1.33725   1.01535  -2.43894
H     2.58127   2.97500   2.13854
H     1.15626   3.35341   3.17022
H     1.46980   4.30710   1.67507
