24
Generated by autodE on: 2022-10-13. E = -555.948162 Ha
C    -3.37198  -1.65639   0.13189
C    -2.58548  -0.55442  -0.46736
C    -3.14927   0.35348  -1.48757
O    -1.37718  -0.45342  -0.05087
C    -0.34376   0.40386  -0.31774
C    -0.52439   1.60387  -1.01241
N    -0.57627   2.64177  -1.56080
C     0.92906   0.01936   0.26428
C     1.08431  -1.19696   0.97107
C     2.31515  -1.54853   1.52478
C     3.42954  -0.71187   1.39257
C     3.28902   0.49217   0.69166
C     2.06348   0.85657   0.13713
H    -4.26420  -1.24441   0.63612
H    -3.74606  -2.32348  -0.66448
H    -2.77379  -2.23015   0.85105
H    -3.21610   1.38673  -1.10673
H    -4.15163   0.01607  -1.77787
H    -2.49478   0.37824  -2.37592
H     0.23167  -1.86820   1.08220
H     2.40395  -2.49406   2.06648
H     4.39135  -0.99365   1.82661
H     4.14605   1.16090   0.57591
H     1.97692   1.80223  -0.40259
