38
Generated by autodE on: 2022-06-17. E = -730.862179 Ha
C     3.45083   1.25395  -1.13718
N     2.26518   0.79589  -0.44811
C     2.19898  -0.37417   0.20689
O     3.15900  -1.14608   0.35349
C     0.80423  -0.73948   0.71502
C     0.02165  -1.48664  -0.38483
C     0.35804  -2.96769  -0.47806
C    -1.43626  -1.17134  -0.02720
C    -2.42999  -1.47135  -1.14162
C    -1.38054   0.29600   0.51823
C    -2.45634   0.50083   1.59171
C    -1.55726   1.30175  -0.65102
C    -2.93492   1.79687  -0.99693
O    -0.58586   1.70053  -1.27727
N    -0.01150   0.41159   1.02511
C     0.26895   1.09849   2.26132
H     3.48333   2.35255  -1.13946
H     3.48423   0.90499  -2.18438
H     4.34469   0.87355  -0.62449
H     1.36926   1.27503  -0.57299
H     0.95728  -1.40931   1.58674
H     0.24784  -1.00405  -1.35082
H    -0.17561  -3.44740  -1.31282
H     1.43723  -3.11201  -0.64036
H     0.08206  -3.49195   0.45168
H    -1.69932  -1.78964   0.84883
H    -2.19923  -0.90712  -2.05977
H    -3.46255  -1.23708  -0.84172
H    -2.39779  -2.54203  -1.39469
H    -3.44928   0.24118   1.19954
H    -2.25212  -0.15737   2.44804
H    -2.49484   1.53836   1.95282
H    -3.68425   0.99497  -0.98147
H    -3.23972   2.53300  -0.23390
H    -2.91745   2.28969  -1.97792
H    -0.00756   0.52403   3.17056
H    -0.25258   2.06623   2.29938
H     1.34795   1.31259   2.32632
