12
Generated by autodE on: 2022-06-17. E = -157.300302 Ha
C     1.95901   0.13635   0.03810
C     0.49864   0.29914   0.33252
C    -0.49864  -0.29906  -0.33259
C    -1.95900  -0.13640  -0.03806
H     2.43052   1.10668  -0.19887
H     2.50176  -0.26230   0.91368
H     2.13109  -0.54451  -0.81036
H     0.24370   0.96718   1.16721
H    -0.24371  -0.96708  -1.16729
H    -2.13113   0.54514   0.80985
H    -2.50204   0.26126  -0.91390
H    -2.43018  -1.10667   0.19991
