26
Generated by autodE on: 2022-07-27. E = -573.488203 Ha
C     2.20077   1.63960  -1.58343
N     1.57976   0.91842  -0.49066
C     1.62287  -0.43162  -0.44479
O     2.38318  -1.09674  -1.16396
C     0.85954  -1.12203   0.61459
N    -0.21473  -0.69624   1.26039
C    -0.51359  -1.33956   2.55648
C    -1.12523   0.23791   0.78748
C    -1.99626   0.94432   1.78939
C    -1.43041   0.22377  -0.61219
C    -2.67365   0.97617  -1.05348
O    -0.77031  -0.40589  -1.47035
H     2.10660   2.71728  -1.39962
H     1.72300   1.40289  -2.55000
H     3.26834   1.38821  -1.66056
H     0.81182   1.37415  -0.00414
H     1.30887  -2.05198   0.96406
H     0.15516  -2.19603   2.69188
H    -1.56035  -1.66515   2.57821
H    -0.33942  -0.62055   3.36750
H    -2.37557   1.88359   1.36651
H    -2.87429   0.35268   2.10855
H    -1.43230   1.20979   2.69536
H    -3.56756   0.68174  -0.48239
H    -2.53867   2.06126  -0.91246
H    -2.84143   0.77842  -2.12040
