33
Generated by autodE on: 2022-10-21. E = -3392.981701 Ha
C     3.81740   0.14221   1.03924
O     2.86028   0.82913   0.22764
C     1.77903   0.17509  -0.19695
C     1.27423  -1.07316  -0.11351
Br    1.83757  -2.64046   0.76749
C    -0.11732  -0.98180  -0.73663
O     0.08616   0.01196  -1.75802
C     0.68859   0.98162  -0.89694
C    -0.43224   1.20844   0.16004
C    -1.03030  -0.22837   0.27701
C    -2.53780  -0.10992  -0.09651
C    -3.36397  -0.01591   1.19179
C    -3.06117  -1.25972  -0.95251
N    -2.66613   1.15102  -0.87876
C    -1.63703   2.07264  -0.37909
C    -2.17393   2.91175   0.71909
N    -2.58666   3.57254   1.57703
C    -1.23656   3.00586  -1.44686
N    -0.92077   3.72746  -2.29659
H     4.60298   0.87287   1.26797
H     3.35657  -0.20846   1.97453
H     4.25455  -0.70755   0.49420
H    -0.51434  -1.91094  -1.15497
H     1.03853   1.86497  -1.44143
H    -0.03344   1.63131   1.08811
H    -0.91603  -0.65689   1.27961
H    -2.98021   0.75276   1.87790
H    -3.32963  -0.97814   1.72462
H    -4.41290   0.21981   0.95901
H    -2.90597  -2.21979  -0.43909
H    -2.55596  -1.30229  -1.92917
H    -4.13998  -1.13745  -1.13170
H    -2.41792   0.94026  -1.84683
