17
Generated by autodE on: 2022-10-21. E = -2995.673360 Ha
C     2.43220  -1.18627   0.85708
O     1.21169  -1.89396   0.62347
C     0.17354  -1.23367   0.10881
C    -0.11219   0.02516  -0.27687
Br    0.82367   1.65719  -0.19366
C    -1.61764  -0.01865  -0.63971
C    -2.41062  -0.23620   0.67128
C    -2.11908  -1.48662   1.04169
C    -1.16141  -2.00299  -0.05589
O    -1.69740  -1.33769  -1.21167
H     3.14536  -1.92463   1.24413
H     2.28699  -0.38931   1.60132
H     2.81883  -0.75623  -0.07912
H    -1.97113   0.75780  -1.32700
H    -3.01276   0.51986   1.17416
H    -2.41075  -2.04173   1.93235
H    -1.06394  -3.08593  -0.19065
