16
Generated by autodE on: 2022-10-21. E = -397.240668 Ha
C    -2.63960  -1.53552  -0.27159
C    -1.59330  -0.56152   0.13597
C    -1.95213   0.59824   0.99179
N    -0.36959  -0.74983  -0.27580
C     0.77873   0.05733  -0.12041
C     0.70395   1.45491  -0.03492
N     0.67305   2.62581   0.01747
C     2.02970  -0.57182  -0.21051
N     3.07673  -1.09424  -0.28558
H    -3.42012  -1.01191  -0.84982
H    -3.13203  -1.94325   0.62638
H    -2.23379  -2.35694  -0.87798
H    -2.91824   0.41669   1.47984
H    -1.17632   0.77486   1.75327
H    -2.03931   1.51981   0.39200
H    -0.20490  -1.60869  -0.80798
