33
Generated by autodE on: 2022-10-21. E = -3392.905985 Ha. Imaginary frequency = -366.8 cm-1
C     4.06131   0.02328   0.95638
O     2.99702   0.81579   0.42319
C     1.88108   0.20903   0.01638
C     1.40313  -1.04960  -0.06088
Br    2.06444  -2.73066   0.47084
C    -0.05776  -0.88378  -0.53583
O     0.08512   0.24651  -1.41636
C     0.70227   1.09991  -0.43776
C    -0.34758   1.04412   0.68322
C    -0.86621  -0.23862   0.61377
C    -2.92328  -0.01994  -0.15109
C    -3.59029   0.17707   1.18272
C    -3.24250  -1.30506  -0.85661
N    -2.69163   1.03820  -0.95842
C    -2.16726   2.25712  -0.54803
C    -2.65257   2.98455   0.56744
N    -2.99783   3.63589   1.47356
C    -1.45102   3.00815  -1.51029
N    -0.82658   3.62234  -2.28325
H     4.86530   0.72397   1.21368
H     3.73576  -0.51187   1.86082
H     4.42660  -0.69560   0.20761
H    -0.49327  -1.74882  -1.04596
H     0.98541   2.07597  -0.84467
H    -0.36141   1.72455   1.53292
H    -1.21962  -0.81456   1.46841
H    -3.10036   0.92410   1.81507
H    -3.60835  -0.77761   1.72452
H    -4.63464   0.49487   1.01665
H    -2.92895  -2.15884  -0.23958
H    -2.74834  -1.36940  -1.83666
H    -4.33284  -1.39114  -1.00655
H    -2.38535   0.78211  -1.89626
