20
Generated by autodE on: 2022-06-08. E = -10606.481768 Ha
Br   -1.36207   0.44499  -2.91662
C    -1.54516   0.68068  -0.94154
Br   -2.35529   2.46234  -0.60647
C    -0.24338   0.57643  -0.34514
C     0.66497   0.04403   0.25787
C     1.32610  -1.00066   0.98793
Br    3.22033  -1.19208   0.42313
Br    1.30288  -0.53468   2.93032
C     0.56812  -2.31980   0.74511
C    -0.96555  -2.25106   0.90742
C    -1.82564  -1.84031  -0.32060
C    -2.44114  -0.42501  -0.35152
H     0.99066  -3.07296   1.42568
H     0.81190  -2.63765  -0.28114
H    -1.22373  -1.62896   1.78003
H    -1.26786  -3.27295   1.18003
H    -2.68645  -2.52455  -0.34892
H    -1.27228  -2.03012  -1.25487
H    -3.37973  -0.42947  -0.92424
H    -2.68998  -0.11301   0.67525
