10
Generated by autodE on: 2022-06-08. E = -301.509794 Ha
C     2.41643   0.13342  -0.34388
N     1.28119   0.34259  -0.43351
N     0.04386   0.62130  -0.57805
C    -0.79816  -0.15462   0.20077
C    -2.24930   0.21388   0.05741
O    -0.41148  -1.04394   0.95892
H     3.48305  -0.04276  -0.28525
H    -2.86531  -0.69531   0.10354
H    -2.44575   0.76485  -0.87113
H    -2.53432   0.85360   0.90990
