46
Generated by autodE on: 2022-05-30. E = -1076.728195 Ha
C     1.78007  -2.85471   0.02575
C     0.43885  -2.18678  -0.02476
O    -0.59346  -2.82566  -0.14509
C     0.36076  -0.64950   0.26356
C     1.72517   0.02220   0.22621
C     2.33303   0.37248  -0.98888
C     3.58037   1.00127  -1.00503
C     4.24694   1.28066   0.19150
C     3.65579   0.91848   1.40511
C     2.40699   0.29300   1.42140
O    -0.12255  -0.60551   1.61158
C    -1.54885  -0.70468   1.61058
C    -2.09121  -0.24834   2.95048
C    -2.02431   0.04429   0.34908
C    -3.31141  -0.60158  -0.16158
C    -2.25043   1.60164   0.49609
C    -1.11476   2.26926   1.25141
C    -0.07853   2.28283   0.40509
C    -0.59569   1.61650  -0.85571
O    -1.96833   2.01484  -0.85470
C    -0.75778   0.03149  -0.59790
C    -0.82886  -0.58100  -1.99486
C    -1.95782  -0.25422  -2.93205
O     0.09787  -1.27630  -2.39185
H     1.65541  -3.94169  -0.06179
H     2.29042  -2.60358   0.96838
H     2.41653  -2.47832  -0.78863
H     1.83267   0.15616  -1.93122
H     4.03222   1.27468  -1.96151
H     5.22103   1.77521   0.17776
H     4.16716   1.12667   2.34810
H     1.94666   0.02567   2.37125
H    -1.82591  -1.76217   1.47767
H    -3.19047  -0.29749   2.94086
H    -1.73002  -0.91856   3.74519
H    -1.78656   0.77537   3.20196
H    -3.78099  -0.01992  -0.96365
H    -3.12649  -1.62312  -0.52231
H    -4.03183  -0.66142   0.66970
H    -3.27189   1.86919   0.78834
H    -1.15195   2.61754   2.28206
H     0.93624   2.63806   0.56513
H    -0.10418   1.87457  -1.79910
H    -2.71544  -1.04911  -2.84432
H    -2.43919   0.70121  -2.70204
H    -1.57419  -0.27052  -3.96137
