25
Generated by autodE on: 2022-07-27. E = -577.048264 Ha
C    -3.31538   0.41385   2.10418
C    -2.66665  -0.20220   0.93655
O    -1.44039   0.07066   0.71929
C    -0.53797  -0.34145  -0.24291
C    -0.93564  -1.33110  -1.17576
C     0.08208  -1.92597  -2.13012
O    -2.11571  -1.77367  -1.22070
C     0.76582   0.29878  -0.04329
C     1.64462   0.56920  -1.11539
C     2.88233   1.17752  -0.89652
C     3.27408   1.55640   0.39081
C     2.40382   1.31984   1.46116
C     1.17316   0.69941   1.25082
H    -4.19478   0.99598   1.77451
H    -3.70651  -0.37790   2.76861
H    -2.62313   1.06099   2.65942
H    -3.16868  -0.87993   0.24402
H    -0.25835  -2.93982  -2.38544
H     1.09785  -1.97163  -1.71518
H     0.12287  -1.34268  -3.06478
H     1.34905   0.33081  -2.13622
H     3.53892   1.37295  -1.74820
H     4.24088   2.03677   0.55780
H     2.69059   1.61234   2.47460
H     0.51538   0.51078   2.10079
