41
Generated by autodE on: 2022-06-18. E = -936.528173 Ha
C    -1.18123   2.14197  -0.58881
C    -1.38515   0.65597  -0.59582
O    -1.74162   0.06270  -1.60283
C    -1.15016  -0.14796   0.68841
C    -2.40616  -0.99644   1.05778
C    -3.75256  -0.61942   0.50910
O    -2.28331  -1.89911   1.86839
C     0.09988  -1.13211   0.55901
C     1.20926  -0.43522   1.35871
C     1.95570   0.63705   0.54628
C     2.05945   0.29508  -0.92068
C     2.90725   1.07310  -1.83334
N     3.55283   2.14048  -1.29473
O     3.04590   0.80448  -3.04550
C     1.36041  -0.75188  -1.45216
N     0.48980  -1.52752  -0.76369
C    -0.22344  -2.62992  -1.38091
C     0.39817   0.15446   2.50260
N    -0.77964   0.69698   1.83257
C    -1.81657   1.19719   2.71103
H    -1.42308   2.54358  -1.58137
H    -0.14278   2.38928  -0.32682
H    -1.82087   2.61028   0.17521
H    -4.53847  -1.11135   1.09645
H    -3.89277   0.47175   0.51440
H    -3.82011  -0.94431  -0.54036
H    -0.19940  -2.03245   1.10897
H     1.91818  -1.19603   1.71415
H     1.45783   1.61278   0.68210
H     2.96345   0.75435   0.97899
H     4.13068   2.71227  -1.90054
H     3.44756   2.41301  -0.32604
H     1.49583  -1.01023  -2.50417
H    -1.30717  -2.43652  -1.40029
H    -0.04699  -3.56717  -0.82739
H     0.12611  -2.76104  -2.41328
H     0.13632  -0.62907   3.24355
H     0.93093   0.95559   3.04043
H    -2.26178   0.41829   3.36446
H    -2.62687   1.66234   2.13087
H    -1.38950   1.97214   3.36668
