41
Generated by autodE on: 2022-06-18. E = -936.482529 Ha. Imaginary frequency = -348.0 cm-1
C    -3.08336  -0.49028  -1.77031
C    -1.94912   0.07315  -0.93441
O    -1.01010   0.63756  -1.54693
C    -1.97326  -0.04186   0.49439
C    -3.08290  -0.55797   1.25162
C    -3.13909  -0.30403   2.75438
O    -4.03721  -1.19561   0.75117
C     1.00093  -1.92183   0.27858
C     1.54032  -1.17009   1.31944
C     2.53953  -0.07175   1.00479
C     2.35796   0.41670  -0.41470
C     3.03311   1.68330  -0.78572
N     2.57362   2.34847  -1.87147
O     3.98401   2.10660  -0.11098
C     1.66935  -0.31041  -1.32023
N     1.03470  -1.50960  -0.99975
C     0.34582  -2.24238  -2.06072
C    -0.15514  -0.28347   2.05513
N    -0.86440   0.50152   1.22539
C    -0.40392   1.86344   0.98259
H    -4.06509  -0.11541  -1.44821
H    -3.12783  -1.58644  -1.68575
H    -2.90093  -0.21074  -2.81790
H    -4.19835  -0.20908   3.03406
H    -2.58769   0.58854   3.07786
H    -2.73457  -1.17045   3.30359
H     0.45330  -2.84657   0.47024
H     1.69230  -1.71661   2.25301
H     2.42960   0.76872   1.71007
H     3.57500  -0.43552   1.14813
H     1.68328   2.12060  -2.29830
H     3.01684   3.22694  -2.12034
H     1.57305  -0.02190  -2.36554
H    -0.26434  -1.54491  -2.64729
H    -0.30544  -3.00130  -1.61197
H     1.07501  -2.73358  -2.72296
H     0.42515   0.23602   2.82429
H    -0.63663  -1.20951   2.36578
H     0.03492   2.26951   1.90619
H    -1.25564   2.48836   0.68486
H     0.35370   1.90407   0.18548
