32
Generated by autodE on: 2022-10-20. E = -971.474619 Ha
C    -2.99790   0.45792  -2.11108
O    -1.67691   0.34096  -1.55457
C    -1.58049   0.33422  -0.23672
O    -2.53838   0.39893   0.51024
C    -0.15790   0.33053   0.29279
C     0.47207   1.78848   0.20725
C     0.44302   2.21631  -1.25407
C     1.41582   1.51769  -1.85085
C     2.02079   0.66389  -0.75149
O     1.85215   1.49045   0.40660
C     0.98191  -0.47402  -0.43460
O     0.56584  -1.24728  -1.48592
C     1.59796  -1.86035  -2.26724
O     1.50467  -1.37322   0.57156
O     1.23264  -0.76744   1.84984
C    -0.10145  -0.27712   1.73356
C    -0.33528   0.67281   2.90031
C    -1.00591  -1.45436   1.84067
N    -1.64366  -2.41294   1.97664
H    -2.86370   0.44919  -3.19828
H    -3.61939  -0.39074  -1.79329
H    -3.46346   1.39954  -1.78786
H     0.08546   2.49168   0.94970
H    -0.28990   2.89078  -1.69394
H     1.68313   1.47470  -2.90582
H     3.05196   0.31243  -0.85292
H     1.08764  -2.47741  -3.01729
H     2.21259  -1.10559  -2.78246
H     2.24229  -2.50117  -1.64649
H     0.44007   1.44868   2.90460
H    -0.28952   0.11711   3.84683
H    -1.32596   1.13361   2.79853
