9
Generated by autodE on: 2022-10-20. E = -321.303035 Ha
C    -1.11118   1.07601   1.30309
C    -0.36611   0.30436   0.28949
C     0.90862  -0.29716   0.55879
N     1.93378  -0.74774   0.86839
O    -0.85488   0.15432  -0.87512
O    -0.16805  -0.55229  -1.79632
H    -1.30900   0.43724   2.18004
H    -2.05441   1.43851   0.87569
H    -0.49545   1.92450   1.64561
