23
Generated by autodE on: 2022-10-20. E = -650.084132 Ha
C     3.19772   1.85661   0.38423
O     2.20169   0.83059   0.38431
C     1.04378   1.10725  -0.26393
O     0.85604   2.18917  -0.80412
C     0.15743  -0.03992  -0.22768
C    -1.18666  -0.21726  -0.39211
O    -2.24458   0.53416  -0.61171
C    -2.13661   1.96565  -0.63878
C    -1.44724  -1.71551  -0.11725
C    -1.25548  -1.91212   1.40174
C     0.05900  -1.76142   1.59188
C     0.63295  -1.46074   0.19167
O    -0.23224  -2.27384  -0.62638
H     3.49572   2.11255  -0.64354
H     2.82653   2.76221   0.88681
H     4.05471   1.44798   0.93314
H    -3.15980   2.34000  -0.76144
H    -1.50301   2.28755  -1.47377
H    -1.71177   2.32481   0.30947
H    -2.34720  -2.12868  -0.58516
H    -2.05831  -2.07031   2.12051
H     0.63478  -1.76872   2.51685
H     1.69028  -1.67953   0.01813
