56
Generated by autodE on: 2022-06-29. E = -1396.071036 Ha
C     0.73143  -2.01997  -1.33292
C     0.40223  -0.60210  -1.72162
O     0.13479  -0.36060  -2.88690
C     0.36512   0.56203  -0.69534
C     0.63157   1.90676  -1.49867
C     0.40899   3.12330  -0.61711
C     1.46120   3.16121   0.21132
C     2.30320   1.95985  -0.17236
O     2.06501   1.85678  -1.57793
C     1.57459   0.64201   0.33561
C     2.55902  -0.51508   0.42559
C     3.60403  -0.62023  -0.50657
C     4.50060  -1.68876  -0.45583
C     4.37401  -2.66937   0.53260
C     3.34249  -2.56831   1.46881
C     2.44262  -1.50101   1.41606
N     0.85948   0.82423   1.61117
C     1.44877   1.02448   2.77380
N     1.97384   1.18299   3.80757
N    -0.50410   1.17883   1.47721
C    -0.95095   0.54401   0.22245
C    -1.45715  -0.88088   0.51369
C    -1.19704  -1.50541   1.74103
C    -1.63134  -2.81217   1.98259
C    -2.34334  -3.51247   1.00576
C    -2.63151  -2.88686  -0.21048
C    -2.19675  -1.58232  -0.45038
C    -2.11627   1.37006  -0.33088
C    -2.39403   1.45262  -1.70286
C    -3.48875   2.18804  -2.16523
C    -4.32850   2.84844  -1.26532
C    -4.07130   2.75536   0.10520
C    -2.98015   2.01694   0.56832
H     1.78120  -2.20833  -1.60673
H     0.61129  -2.23526  -0.26970
H     0.10210  -2.68889  -1.93451
H     0.19021   1.91805  -2.49449
H    -0.46610   3.77043  -0.64800
H     1.66376   3.83772   1.04111
H     3.37025   1.99375   0.06436
H     3.69941   0.11710  -1.30326
H     5.30000  -1.75596  -1.19735
H     5.07516  -3.50616   0.57229
H     3.22886  -3.32784   2.24573
H     1.63009  -1.46035   2.13924
H    -0.53974   2.19132   1.33895
H    -0.65501  -0.97316   2.52008
H    -1.41104  -3.28190   2.94415
H    -2.68070  -4.53424   1.19455
H    -3.20001  -3.41474  -0.97963
H    -2.43325  -1.11580  -1.40677
H    -1.76373   0.93741  -2.42532
H    -3.68239   2.24192  -3.23898
H    -5.18134   3.42634  -1.62868
H    -4.72544   3.25604   0.82283
H    -2.80558   1.94023   1.64193
