28
Generated by autodE on: 2022-06-29. E = -691.408463 Ha
C    -3.21009   1.45572   0.87144
C    -1.72154   1.24117   1.01314
O    -1.00399   2.13422   1.46614
C    -1.22123  -0.06858   0.58771
C    -0.00900  -0.48394   0.11450
C     1.28566   0.15005  -0.09814
C     1.73839   1.24980   0.66268
C     2.98704   1.81809   0.41411
C     3.80876   1.31145  -0.59830
C     3.37631   0.21988  -1.35904
C     2.13598  -0.36255  -1.10545
C    -0.28753  -1.93280  -0.39209
C    -1.16231  -1.80783  -1.65533
C    -2.35035  -1.39759  -1.20144
C    -2.16767  -1.27675   0.32683
O    -1.25588  -2.35530   0.57448
H    -3.56409   1.16072  -0.12924
H    -3.45094   2.50971   1.06104
H    -3.74575   0.82563   1.60113
H     1.09482   1.64840   1.44312
H     3.32304   2.66435   1.01802
H     4.78544   1.76177  -0.79059
H     4.01138  -0.18348  -2.15099
H     1.81747  -1.21335  -1.70996
H     0.57426  -2.60582  -0.43149
H    -0.81572  -1.96651  -2.67572
H    -3.25464  -1.13205  -1.74787
H    -3.06403  -1.34390   0.95073
