28
Generated by autodE on: 2022-06-29. E = -704.635043 Ha
N    -2.82121   2.60438  -0.30989
C    -1.71642   2.59458   0.10121
N    -0.52138   2.78045   0.60330
N     0.41071   1.81788   0.46805
C     0.35101   0.53345   0.16995
C     1.62165  -0.16170  -0.08999
C     1.75436  -1.52483   0.24427
C     2.96113  -2.18874   0.03156
C     4.05216  -1.50954  -0.52194
C     3.92818  -0.15998  -0.86707
C     2.72268   0.50980  -0.65979
C    -0.92523  -0.20128   0.13700
C    -1.21725  -1.05391  -0.94289
C    -2.40352  -1.78622  -0.95687
C    -3.29829  -1.69408   0.11514
C    -3.00508  -0.86243   1.20033
C    -1.82921  -0.11289   1.21162
H     1.34609   2.19546   0.63708
H     0.91240  -2.05669   0.68904
H     3.05244  -3.24256   0.30360
H     4.99527  -2.03382  -0.69174
H     4.76979   0.37123  -1.31681
H     2.62943   1.55191  -0.97326
H    -0.51384  -1.13104  -1.77394
H    -2.62974  -2.43518  -1.80571
H    -4.22370  -2.27446   0.10586
H    -3.69669  -0.79527   2.04290
H    -1.60173   0.53287   2.06158
