56
Generated by autodE on: 2022-06-29. E = -1396.025738 Ha. Imaginary frequency = -335.9 cm-1
C     0.63310  -2.07173  -1.40877
C     0.31699  -0.65910  -1.84605
O    -0.34764  -0.49526  -2.89282
C     0.81033   0.46534  -1.10360
C     0.99708   1.83106  -1.80568
C     0.48683   2.95894  -0.91562
C     1.35751   3.02733   0.10086
C     2.38479   1.94023  -0.19157
O     2.43488   1.98885  -1.62543
C     1.71073   0.51091   0.00133
C     2.65952  -0.59803   0.35913
C     3.79483  -0.73164  -0.46280
C     4.72585  -1.74608  -0.23848
C     4.54344  -2.64867   0.81466
C     3.42180  -2.52134   1.63630
C     2.48735  -1.50502   1.41286
N     0.66680   0.67614   1.60453
C     1.31815   1.23174   2.61453
N     1.97888   1.64916   3.48692
N    -0.55211   1.19794   1.31934
C    -1.44255   0.54349   0.58389
C    -1.62743  -0.90875   0.63765
C    -1.11850  -1.67382   1.70953
C    -1.37373  -3.04058   1.78384
C    -2.13000  -3.67431   0.79190
C    -2.65396  -2.92304  -0.26425
C    -2.41928  -1.55184  -0.33629
C    -2.47356   1.42273  -0.03687
C    -2.58278   1.53821  -1.43150
C    -3.53368   2.40025  -1.98112
C    -4.37688   3.14665  -1.15152
C    -4.26787   3.03108   0.23695
C    -3.31884   2.17209   0.79629
H     1.67889  -2.30241  -1.67015
H     0.53405  -2.21916  -0.32824
H    -0.02728  -2.76530  -1.94470
H     0.71232   1.84309  -2.86113
H    -0.43926   3.51227  -1.06610
H     1.33300   3.65054   0.99477
H     3.37492   2.03367   0.26473
H     3.93100  -0.04312  -1.29817
H     5.59554  -1.83372  -0.89413
H     5.26962  -3.44571   0.99033
H     3.26369  -3.22087   2.46064
H     1.61234  -1.43560   2.05345
H    -0.61694   2.22022   1.29548
H    -0.54080  -1.19419   2.49628
H    -0.97834  -3.61498   2.62422
H    -2.31866  -4.74864   0.84809
H    -3.25434  -3.40676  -1.03742
H    -2.83876  -0.98200  -1.16307
H    -1.91357   0.97049  -2.07997
H    -3.60978   2.49370  -3.06674
H    -5.11844   3.81968  -1.58787
H    -4.92401   3.60987   0.89077
H    -3.23546   2.07612   1.88096
