49
Generated by autodE on: 2022-06-24. E = -1129.256198 Ha
C    -3.58306  -0.47247   0.73833
C    -3.00614  -1.00377  -0.34804
C    -3.78344  -1.83648  -1.33218
C    -1.54185  -0.80640  -0.67728
C    -0.80610   0.34067   0.04491
C    -1.06905   1.65907  -0.61429
C    -1.49541   2.78905  -0.02336
C    -1.72366   4.03671  -0.83340
C    -1.75261   2.94266   1.45041
C     0.70794  -0.11803   0.09632
C     1.15064  -0.21040   1.57429
O     0.76335   0.52148   2.46099
O     2.03927  -1.18337   1.75882
C     2.50622  -1.39784   3.10100
C     1.67233   0.84547  -0.60115
C     2.22840   0.53488  -1.84686
C     3.06730   1.44670  -2.49664
C     3.35916   2.67957  -1.90884
C     2.80589   2.99583  -0.66345
C     1.96855   2.08694  -0.01484
N     0.70676  -1.43693  -0.54333
C    -0.60715  -2.03166  -0.37824
C    -0.84783  -2.53527   1.00267
N    -0.96736  -2.85523   2.11094
C    -0.77409  -3.14682  -1.32593
N    -0.87607  -4.00227  -2.07086
H    -4.64561  -0.64009   0.93644
H    -3.04179   0.14333   1.45833
H    -4.84914  -1.87891  -1.06654
H    -3.68799  -1.42445  -2.35088
H    -3.40323  -2.87026  -1.37630
H    -1.44415  -0.66027  -1.76415
H    -1.14482   0.37472   1.08248
H    -0.88915   1.67841  -1.69489
H    -1.53976   3.87381  -1.90551
H    -2.75745   4.40344  -0.70688
H    -1.06198   4.85009  -0.48640
H    -1.52493   2.04364   2.03508
H    -2.80553   3.22051   1.63086
H    -1.14111   3.76933   1.85230
H     2.98883  -0.48924   3.48718
H     3.22797  -2.21994   3.04068
H     1.66263  -1.67546   3.74899
H     1.99805  -0.42273  -2.31170
H     3.49276   1.18802  -3.46931
H     4.01409   3.39133  -2.41689
H     3.02396   3.95780  -0.19364
H     1.53515   2.35095   0.95041
H     1.46119  -2.03786  -0.21416
