23
Generated by autodE on: 2022-06-24. E = -351.521383 Ha
C    -2.55326  -0.48409  -2.74691
C    -2.07052  -0.43934  -1.48564
C    -2.95106  -0.73582  -0.29868
C    -0.66887  -0.09732  -1.25217
C    -0.06542  -0.01834  -0.03956
C     1.33055   0.32689   0.13614
C     2.00429   0.43318   1.30933
C     1.39293   0.20516   2.66265
C     3.46106   0.80079   1.32910
H    -1.91136  -0.26797  -3.60657
H    -3.59772  -0.73648  -2.95010
H    -2.99236   0.12432   0.39012
H    -3.97643  -0.97590  -0.61336
H    -2.55949  -1.58622   0.28397
H    -0.07108   0.11052  -2.14783
H    -0.65464  -0.22448   0.85813
H     1.89001   0.52058  -0.78712
H     1.50973   1.10607   3.29060
H     0.32633  -0.05128   2.62795
H     1.92485  -0.60606   3.19060
H     3.62391   1.72406   1.91385
H     3.86543   0.95355   0.31771
H     4.05625   0.01519   1.82852
