26
Generated by autodE on: 2022-06-24. E = -777.704484 Ha
C    -0.37554   4.22885  -0.28255
O    -0.50343   2.80850  -0.10172
C     0.55685   2.07035  -0.39517
O     1.61536   2.50985  -0.81624
C     0.33053   0.61653  -0.18086
N     1.37843  -0.10182  -0.53336
C     1.68892  -1.43037  -0.43878
C     0.89982  -2.36843   0.25954
N     0.30462  -3.19159   0.83512
C     2.90009  -1.86656  -1.02014
N     3.89700  -2.24360  -1.49778
C    -0.93838   0.05562   0.30072
C    -1.62109  -0.90230  -0.47126
C    -2.83905  -1.41803  -0.02910
C    -3.38199  -0.99115   1.18642
C    -2.70899  -0.03585   1.95647
C    -1.49736   0.49370   1.51481
H    -0.17058   4.45906  -1.33767
H     0.43692   4.62012   0.34595
H    -1.33667   4.65633   0.02324
H     2.12686   0.48516  -0.93408
H    -1.19928  -1.23493  -1.42176
H    -3.36509  -2.15767  -0.63641
H    -4.33309  -1.40100   1.53388
H    -3.13121   0.29874   2.90651
H    -0.97225   1.24048   2.11212
