26
Generated by autodE on: 2022-07-27. E = -777.699073 Ha
C    -0.07415  -1.83206   3.10762
O     0.19239  -1.38234   1.76677
C    -0.18400  -0.14592   1.46113
O    -0.65338   0.65191   2.24299
C     0.10273   0.17957   0.02581
N    -0.22206  -0.66296  -0.93582
C    -1.00217  -1.80372  -0.96270
C    -1.86058  -2.16595   0.09056
N    -2.60272  -2.47650   0.93854
C    -0.98568  -2.57873  -2.13875
N    -0.98284  -3.22757  -3.11141
C     0.74593   1.45003  -0.30208
C     0.58965   2.04173  -1.57416
C     1.24472   3.23168  -1.88417
C     2.05453   3.85967  -0.93202
C     2.20534   3.28936   0.33668
C     1.55865   2.09740   0.65391
H     0.47441  -1.21010   3.82857
H     0.27619  -2.86889   3.14935
H    -1.15192  -1.78210   3.31332
H     0.13383  -0.41043  -1.86336
H    -0.07337   1.59526  -2.31898
H     1.10671   3.68056  -2.87003
H     2.56008   4.79677  -1.17528
H     2.83566   3.77498   1.08458
H     1.69730   1.65974   1.64335
