52
Generated by autodE on: 2022-06-06. E = -1429.348375 Ha
C    -3.48005   2.14024  -2.77269
N    -2.46126   1.85053  -1.78213
C    -2.14963   0.59294  -1.44353
O    -2.69559  -0.38979  -1.94884
C    -1.11660   0.44415  -0.28785
C    -1.98331   0.22187   0.96702
C    -2.97566  -0.77132   0.98627
C    -3.75631  -0.97243   2.12466
C    -3.56804  -0.18009   3.26151
C    -2.59183   0.81773   3.24572
C    -1.80639   1.01914   2.10666
N    -0.43291   1.75856  -0.13143
N     0.79593   1.71322  -0.16090
C     1.36095   0.34811  -0.34004
C     2.26913   0.14915   0.86940
C     3.66658   0.11028   0.73753
C     4.49099   0.01388   1.86219
C     3.93651  -0.02678   3.14344
C     2.54871   0.04769   3.29016
C     1.72733   0.14338   2.16579
C     2.05782   0.34153  -1.72908
C     2.61855  -1.07089  -2.04137
C     1.35305  -1.87020  -2.44691
C     0.20883  -0.88750  -2.13241
C     0.84586   0.40672  -2.67149
C     0.07610  -0.56936  -0.59046
C     0.02490  -1.87410   0.21485
F     1.21726  -2.50732   0.23147
F    -0.86325  -2.73012  -0.33481
F    -0.31691  -1.75435   1.50814
H    -4.47191   1.79721  -2.43689
H    -3.25265   1.64164  -3.72717
H    -3.51528   3.22393  -2.93631
H    -1.98209   2.60614  -1.30122
H    -3.12744  -1.39787   0.10943
H    -4.51732  -1.75637   2.12172
H    -4.18021  -0.33906   4.15225
H    -2.43429   1.44807   4.12397
H    -1.05054   1.80311   2.11719
H     4.13310   0.16284  -0.24452
H     5.57496  -0.02245   1.73094
H     4.58164  -0.10286   4.02183
H     2.09872   0.03898   4.28562
H     0.65171   0.22001   2.30666
H     2.78964   1.15291  -1.81817
H     3.13172  -1.52413  -1.18625
H     3.34377  -1.00451  -2.86483
H     1.33334  -2.04945  -3.53169
H     1.27227  -2.84759  -1.96175
H    -0.74619  -1.18539  -2.56490
H     1.12863   0.30753  -3.72849
H     0.23785   1.31266  -2.56847
