22
Generated by autodE on: 2022-06-06. E = -588.102820 Ha
C     3.38859   1.46914  -0.46472
N     2.04433   0.94142  -0.33925
C     1.79002  -0.15810   0.40197
O     2.68219  -0.76748   1.01071
C     0.38256  -0.62700   0.43844
N     0.25274  -1.81103   0.98944
N     0.14959  -2.83540   1.46623
C    -0.83398   0.01907  -0.10202
C    -1.02252   1.41033   0.00743
C    -2.17179   2.01197  -0.50968
C    -3.16235   1.23879  -1.12183
C    -2.99326  -0.14663  -1.21613
C    -1.83873  -0.75139  -0.71863
H     3.34439   2.42093  -1.00822
H     3.83456   1.64663   0.52567
H     4.05026   0.77875  -1.01414
H     1.29968   1.36703  -0.87915
H    -0.27635   2.02434   0.51349
H    -2.29784   3.09335  -0.41815
H    -4.06253   1.71191  -1.52045
H    -3.76104  -0.76181  -1.69126
H    -1.71088  -1.83198  -0.81516
