30
Generated by autodE on: 2022-06-06. E = -841.225396 Ha
F    -1.95304   2.42234  -0.00166
C    -0.79630   1.78325  -0.27921
F     0.05685   2.08592   0.72253
F    -0.29474   2.37958  -1.39188
C    -1.02179   0.32222  -0.45565
C    -0.15824  -0.70499  -0.24998
C     1.27004  -0.70408   0.08701
C     2.15058   0.27352  -0.41857
C     3.50623   0.24772  -0.09217
C     4.01312  -0.75334   0.74397
C     3.15332  -1.73732   1.24169
C     1.79771  -1.71996   0.90912
C    -1.00423  -1.97474  -0.30768
C    -1.88434  -1.96823   0.98589
C    -2.86615  -0.78907   0.73516
C    -2.41285  -0.26008  -0.66401
C    -2.04800  -1.57972  -1.36941
H     1.77429   1.04357  -1.09285
H     4.17406   1.01027  -0.50003
H     5.07543  -0.77116   0.99839
H     3.54059  -2.52645   1.89057
H     1.13704  -2.49355   1.30429
H    -0.43979  -2.90047  -0.47020
H    -2.41934  -2.92517   1.07432
H    -1.27483  -1.83760   1.89084
H    -3.90911  -1.13612   0.68690
H    -2.80581  -0.00342   1.50113
H    -3.13400   0.40192  -1.15760
H    -1.61112  -1.42770  -2.36725
H    -2.88998  -2.28594  -1.43201
