28
Generated by autodE on: 2022-06-09. E = -1275.672089 Ha
C     3.11981  -2.51569  -0.40845
N     2.13360  -1.45845  -0.52790
C     1.72819  -0.76344   0.54048
O     2.15342  -0.92957   1.68037
C     0.64269   0.30795   0.25390
C     1.14009   1.71233   0.70160
C     1.09946   2.79814  -0.32754
O     1.50815   1.87070   1.84448
O     0.31325   0.32418  -1.13898
C    -1.05601   0.02643  -1.35601
C    -1.70358   1.16442  -2.05556
N    -2.20873   2.07196  -2.56821
C    -1.16917  -1.19113  -2.19796
N    -1.24648  -2.16273  -2.82384
C    -1.66841  -0.19394   0.02487
C    -3.10365  -0.51776   0.21518
C    -0.68047  -0.03354   0.91365
Cl   -0.84477  -0.16371   2.61580
H     4.06331  -2.12932   0.00705
H     3.31292  -2.93285  -1.40365
H     2.76103  -3.32024   0.25267
H     1.71822  -1.24831  -1.42942
H     1.48472   3.72719   0.11087
H     0.06362   2.94356  -0.67407
H     1.69290   2.50956  -1.20856
H    -3.36050  -1.45935  -0.29773
H    -3.33663  -0.62084   1.28260
H    -3.73980   0.27420  -0.21339
