21
Generated by autodE on: 2022-06-09. E = -699.211054 Ha
C    -3.44606  -1.72914  -0.16176
N    -2.54133  -0.67408   0.24783
C    -1.28020  -0.62736  -0.20077
O    -0.76209  -1.48335  -0.93115
C    -0.48355   0.57049   0.17511
O     0.80266   0.58190  -0.00454
C     1.76020  -0.29330  -0.22831
C     1.66112  -1.69808  -0.10663
N     1.75478  -2.84995   0.05289
C     3.03809   0.28674  -0.42442
N     4.09616   0.74074  -0.60605
C    -1.02381   1.89008   0.57837
C    -0.06562   3.04236   0.65485
O    -2.21357   1.99674   0.86503
H    -2.95898  -2.70885  -0.05466
H    -3.75496  -1.61538  -1.21457
H    -4.33856  -1.69911   0.47465
H    -2.89363   0.16300   0.71396
H     0.69665   2.84743   1.42619
H    -0.62336   3.95253   0.90663
H     0.46571   3.17164  -0.30072
