60
Generated by autodE on: 2022-10-23. E = -1543.315226 Ha
C     1.10473  -2.18306   3.67444
N     0.58765  -1.82884   2.36906
C     1.26573  -2.05580   1.24263
O     2.33685  -2.68436   1.22253
C     0.67805  -1.37843  -0.02534
C     0.88723  -2.21207  -1.32632
O     0.09056  -2.08680  -2.26256
N     1.97449  -2.98679  -1.40128
C     2.27677  -3.75633  -2.59100
C     1.39896  -0.00367  -0.23823
C     2.11474   0.57916   1.02123
O     1.02939   1.12150   1.77312
C     0.55277   2.00676   0.75049
C     1.83827   2.77273   0.38508
C     1.85088   4.07584  -0.14201
N     1.79653   5.16320  -0.56496
C     2.82021   1.83889   0.54143
O     4.11212   1.80167   0.29254
C     4.72323   2.95532  -0.30449
C     0.26537   1.04349  -0.43480
C    -1.07581   0.26548  -0.41518
C    -1.58657   0.15742  -1.89721
O    -0.97542   0.65265  -2.84952
N    -2.75709  -0.47698  -2.07427
C    -3.28109  -0.73867  -3.40040
C    -2.13281   1.00862   0.40620
C    -2.74762   2.14552  -0.14358
C    -3.64196   2.90893   0.60757
C    -3.94205   2.54507   1.92518
C    -3.33570   1.41594   2.47973
C    -2.43422   0.65599   1.72629
N    -0.71999  -1.03255   0.17460
C    -1.67222  -2.13144   0.18864
H     1.91484  -1.50141   3.98552
H     1.50302  -3.20701   3.66073
H     0.29267  -2.12509   4.41018
H    -0.19430  -1.18475   2.28323
H     2.52385  -3.07911  -0.54331
H     1.49178  -4.50076  -2.80326
H     2.36508  -3.10263  -3.47288
H     3.22879  -4.28101  -2.44343
H     2.09645  -0.06442  -1.08028
H     2.73724  -0.10537   1.60421
H    -0.28018   2.61911   1.10349
H     5.78262   2.70779  -0.43684
H     4.62151   3.82564   0.36048
H     4.25982   3.16592  -1.27962
H     0.34535   1.57641  -1.38446
H    -3.24721  -0.85768  -1.27449
H    -4.22652  -1.28721  -3.30729
H    -2.57446  -1.34358  -3.99166
H    -3.46713   0.19859  -3.94835
H    -2.51167   2.44861  -1.16650
H    -4.10564   3.79261   0.16274
H    -4.64457   3.13933   2.51416
H    -3.56097   1.12081   3.50732
H    -1.96573  -0.21842   2.17595
H    -1.32420  -2.90300   0.89040
H    -2.64707  -1.78138   0.55745
H    -1.81584  -2.61027  -0.79297
