42
Generated by autodE on: 2022-10-23. E = -1028.841523 Ha
C     2.06319  -0.83809  -3.91403
N     2.19721  -0.34003  -2.56486
C     1.24865  -0.55402  -1.62390
O     0.18206  -1.16602  -1.91696
C     1.51157  -0.05082  -0.28741
C     2.66023   0.72898   0.09915
O     3.65942   0.90955  -0.64403
N     2.62320   1.31594   1.33835
C     3.66855   2.22527   1.76005
N     0.55723  -0.44153   0.69501
C     0.98331  -1.40588   1.72021
C    -0.68821  -0.07615   0.51918
C    -0.92248   1.22541  -0.23215
O    -0.81210   2.26972   0.42011
N    -1.33784   1.13082  -1.49647
C    -1.55852   2.31234  -2.30910
C    -1.85106  -0.74724   1.10230
C    -1.95236  -2.15202   1.07838
C    -3.08828  -2.77699   1.58917
C    -4.12656  -2.01350   2.13384
C    -4.03569  -0.61709   2.15135
C    -2.91211   0.01783   1.62665
H     2.89165  -0.44883  -4.52024
H     1.11510  -0.51153  -4.37023
H     2.08995  -1.94111  -3.96189
H     3.05671   0.10168  -2.23393
H     1.71242   1.42815   1.77118
H     4.65583   1.75305   1.65479
H     3.68110   3.16180   1.17352
H     3.51529   2.47936   2.81734
H     1.97496  -1.09650   2.06862
H     1.06022  -2.40853   1.27872
H     0.27986  -1.41112   2.56072
H    -1.12777   0.23317  -1.94785
H    -2.10440   2.02706  -3.21708
H    -2.15328   3.04757  -1.75012
H    -0.60726   2.78793  -2.60166
H    -1.15857  -2.74531   0.62447
H    -3.16668  -3.86568   1.55617
H    -5.01296  -2.50754   2.53799
H    -4.84695  -0.01985   2.57269
H    -2.83799   1.10631   1.64147
