60
Generated by autodE on: 2022-10-23. E = -1543.198700 Ha. Imaginary frequency = -263.8 cm-1
C     2.13436  -2.97866   3.01878
N     1.17803  -2.29768   2.17039
C     0.86133  -2.79901   0.95296
O     1.31258  -3.90458   0.59941
C     0.02461  -1.99609   0.01217
C    -0.10272  -2.62381  -1.35174
O    -1.21647  -2.93732  -1.80279
N     1.02545  -2.85879  -2.03941
C     0.99917  -3.47078  -3.35005
C     1.48259   0.04019  -0.43684
C     2.32539   0.14348   0.83621
O     1.31919   0.49693   1.80221
C     0.82089   1.64205   1.08154
C     2.14448   2.45823   0.94418
C     2.20492   3.85761   0.90279
N     2.19441   5.02700   0.88422
C     3.08383   1.48348   0.76393
O     4.37472   1.47477   0.51559
C     5.05293   2.73311   0.37688
C     0.53285   1.03511  -0.30041
C    -1.49691  -0.17018  -0.36465
C    -1.44931  -0.22980  -1.89916
O    -0.42064  -0.24045  -2.57936
N    -2.66132  -0.21558  -2.49100
C    -2.78698  -0.36065  -3.92687
C    -2.66014   0.63903   0.13223
C    -3.90575   0.03414   0.39801
C    -5.00975   0.80067   0.77198
C    -4.89628   2.19071   0.87926
C    -3.67415   2.80391   0.59597
C    -2.56776   2.03656   0.21904
N    -1.01808  -1.18905   0.41419
C    -1.44756  -1.18604   1.82906
H     2.23591  -2.41704   3.95636
H     1.79822  -3.99984   3.25400
H     3.12695  -3.05451   2.54149
H     0.99594  -1.31366   2.35195
H     1.91354  -2.62104  -1.61448
H     0.52694  -4.46645  -3.32436
H     0.43610  -2.84652  -4.06324
H     2.02881  -3.57879  -3.71335
H     1.85932  -0.37126  -1.36767
H     2.93434  -0.71095   1.14607
H     0.01028   2.14230   1.61917
H     6.10390   2.49514   0.17719
H     4.96850   3.31278   1.30783
H     4.62767   3.30067  -0.46378
H     0.12583   1.63312  -1.10910
H    -3.49953  -0.24969  -1.92253
H    -2.42646  -1.34841  -4.25933
H    -2.20109   0.40898  -4.45116
H    -3.84327  -0.25482  -4.20334
H    -4.01041  -1.04901   0.29973
H    -5.96407   0.30887   0.97406
H    -5.75968   2.79197   1.17310
H    -3.57591   3.88983   0.66349
H    -1.62985   2.53590  -0.01786
H    -2.53580  -1.13994   1.87992
H    -1.03141  -0.32156   2.36223
H    -1.13075  -2.11108   2.30843
