25
Generated by autodE on: 2022-06-17. E = -701.702041 Ha
C     4.25849   1.06167   0.25692
N     3.26346   0.02057   0.10111
C     1.94218   0.31569   0.10343
O     1.55824   1.49159   0.23264
C     1.01982  -0.83274  -0.05358
C     1.58811  -2.11858  -0.17333
N     2.14841  -3.14160  -0.26331
N    -0.35275  -0.70800  -0.08648
C    -1.14380  -1.95528  -0.25126
C    -0.99412   0.44805   0.01729
C    -2.44326   0.61447  -0.01566
O    -3.31243  -0.23586  -0.13175
O    -2.72474   1.92827   0.10783
C    -4.11023   2.28665   0.09300
H     4.19972   1.80214  -0.55714
H     5.25350   0.60069   0.24231
H     4.13180   1.59971   1.21008
H     3.57695  -0.93702  -0.01004
H    -1.81765  -2.06222   0.60405
H    -1.73355  -1.88095  -1.17022
H    -0.47117  -2.81247  -0.30695
H    -0.37813   1.33329   0.13490
H    -4.64535   1.80446   0.92456
H    -4.14229   3.37670   0.20514
H    -4.57797   1.99006  -0.85772
