31
Generated by autodE on: 2022-06-17. E = -780.313864 Ha. Imaginary frequency = -371.3 cm-1
C     4.52573   0.31605  -0.45664
N     3.09664   0.10084  -0.57041
C     2.26970   0.30463   0.47436
O     2.68672   0.65607   1.58306
C     0.80915   0.10441   0.16471
C     0.38860   0.71801  -1.04565
N     0.15194   1.20348  -2.08089
C     0.35849  -2.01172  -0.97532
C    -0.97300  -2.14266  -0.62273
C    -1.37085  -0.54244   0.83116
C    -2.25577   0.41311   0.13095
O    -2.02458   1.59337  -0.05621
O    -3.41173  -0.17480  -0.21019
C    -4.40103   0.66498  -0.82018
N    -0.08535  -0.23257   1.15463
C     0.44930  -0.99029   2.30176
H     4.97646   0.22846  -1.45260
H     4.73820   1.31840  -0.05532
H     4.99648  -0.42380   0.21157
H     2.72298  -0.27111  -1.43736
H     0.64700  -1.59887  -1.94265
H     1.13858  -2.53745  -0.41940
H    -1.75275  -1.86261  -1.33429
H    -1.25919  -2.88466   0.12632
H    -1.90232  -1.11674   1.59022
H    -4.01593   1.09631  -1.75556
H    -4.69330   1.47677  -0.13811
H    -5.26072   0.01755  -1.02795
H    -0.37800  -1.22423   2.97835
H     0.91052  -1.92375   1.94080
H     1.19894  -0.39405   2.82407
