14
Generated by autodE on: 2022-06-16. E = -270.683213 Ha
C    -0.90231   0.99493   0.84647
C    -0.84461  -0.21680  -0.03898
C    -2.15170  -0.88254  -0.33262
C     0.31218  -0.70916  -0.56112
C     1.64255  -0.15832  -0.35126
O     1.93217   0.82289   0.32980
H    -1.93665   1.22422   1.13839
H    -0.30066   0.84409   1.75706
H    -0.46912   1.87315   0.34232
H    -2.84072  -0.16264  -0.80844
H    -2.04417  -1.76204  -0.98226
H    -2.63745  -1.18681   0.61134
H     0.26851  -1.59647  -1.19945
H     2.45387  -0.71460  -0.88067
