29
Generated by autodE on: 2022-06-17. E = -833.257022 Ha
C     3.85502   0.86042  -0.56437
N     2.61301   0.56933   0.13044
C     1.75637  -0.34463  -0.31853
O     1.93309  -1.07969  -1.28869
C     0.44125  -0.49208   0.50049
C     0.58788  -1.62541   1.42201
N     0.71610  -2.51796   2.15083
O     0.20783   0.70715   1.27448
N    -1.03376   1.29350   0.85866
C    -1.97044   1.09472   1.80161
N    -2.77223   1.02775   2.64546
C    -1.29021   0.83018  -0.54567
C    -0.45678   1.69850  -1.48657
C    -2.77278   0.91756  -0.88202
C    -0.79766  -0.62983  -0.41418
C    -0.61262  -1.47771  -1.65456
O    -0.95766  -1.13788  -2.76568
H     4.48147   1.48983   0.07861
H     4.39119  -0.07179  -0.79013
H     3.66503   1.39114  -1.51135
H     2.30151   1.18041   0.88112
H     0.59040   1.77341  -1.16663
H    -0.87606   2.71431  -1.50797
H    -0.48581   1.27789  -2.49871
H    -2.90984   0.59195  -1.92157
H    -3.12522   1.95506  -0.79127
H    -3.38089   0.26965  -0.23496
H    -1.55793  -1.18279   0.16621
H    -0.23549  -2.50230  -1.45135
