15
Generated by autodE on: 2022-06-17. E = -562.480550 Ha
C    -3.67989  -0.13904  -0.91158
N    -2.23350  -0.02359  -0.88419
C    -1.54227  -0.09288   0.25719
O    -2.01251  -0.22219   1.38729
C    -0.04485   0.00436   0.12616
C     0.72017  -0.00652   1.32404
N     1.25836  -0.01905   2.35522
O     0.43874   0.08132  -1.06215
N     1.68634   0.15586  -1.55275
C     2.67758   0.14792  -0.66757
N     3.68943   0.15399  -0.07403
H    -3.99858  -1.19434  -0.92661
H    -4.06101   0.35841  -1.81186
H    -4.10850   0.34047  -0.02191
H    -1.72941   0.04486  -1.76440
