26
Generated by autodE on: 2022-05-26. E = -1095.667878 Ha
C    -4.37169  -0.38146   0.10402
N    -3.01402   0.05893   0.37123
C    -2.02249  -0.19739  -0.47977
O    -2.12330  -0.79810  -1.54755
C    -0.64348   0.31636  -0.08397
O    -0.61867   0.95051   1.24775
C     0.46148   1.76513   1.21915
O     0.85516   2.44659   2.11591
C     1.02948   1.57147  -0.23029
C     1.83031   2.65960  -0.75217
N     2.48791   3.52522  -1.15093
O    -0.21592   1.37325  -0.91259
C     1.64159   0.14599  -0.21015
C     3.10003  -0.09422  -0.17789
C     0.55492  -0.63771  -0.13464
C     0.45231  -2.11930   0.01938
F    -0.59209  -2.43592   0.81097
F     0.25930  -2.74585  -1.15380
F     1.55366  -2.65101   0.57197
H    -4.79492   0.14355  -0.76652
H    -4.99031  -0.17166   0.98399
H    -4.39150  -1.46175  -0.10308
H    -2.80964   0.58066   1.21859
H     3.53564   0.40726   0.70274
H     3.33694  -1.16301  -0.13948
H     3.57117   0.35594  -1.06702
