10
Generated by autodE on: 2022-05-26. E = -453.905082 Ha
C     3.33441  -0.21000   0.04505
C     1.88649  -0.12059   0.02601
C     0.67755  -0.04533   0.00985
C    -0.77557   0.04874  -0.01044
F    -1.20293   1.28816   0.29862
F    -1.34649  -0.79437   0.87133
F    -1.28138  -0.24974  -1.22247
H     3.77269   0.45110  -0.71935
H     3.66092  -1.24189  -0.15976
H     3.72756   0.08951   1.02949
