20
Generated by autodE on: 2022-06-24. E = -457.715319 Ha
C     3.09576  -0.57023  -0.44265
N     1.81457   0.08133  -0.22521
C     1.74307   1.47997  -0.22268
C     0.58763   2.14596  -0.06987
C    -0.74289   1.45821   0.11245
C    -0.56936  -0.05162   0.07936
C    -1.71983  -0.95733   0.22593
N    -2.93126  -0.36419   0.37460
O    -1.62175  -2.20154   0.21956
C     0.65747  -0.62330  -0.08286
H     3.49520  -0.34335  -1.44514
H     2.96889  -1.65630  -0.35425
H     3.83408  -0.24148   0.30585
H     2.69957   1.98931  -0.35359
H     0.61281   3.23808  -0.07600
H    -1.21126   1.78201   1.06475
H    -1.45339   1.79314  -0.67088
H    -3.75101  -0.95334   0.47052
H    -3.05521   0.64014   0.37017
H     0.75445  -1.70988  -0.10231
