26
Generated by autodE on: 2022-07-27. E = -681.858666 Ha
C    -1.08104   1.37241   3.76325
N    -0.89062   1.24632   2.33411
C    -0.25299   0.19313   1.79741
O     0.18547  -0.75509   2.48339
C    -0.07674   0.17065   0.32822
N     0.66624  -0.88613  -0.05522
C     1.31713  -1.22235  -1.17036
C     1.45937  -0.32624  -2.35555
C     1.98385  -2.47158  -1.14417
N     2.54559  -3.49595  -1.15553
C    -0.80355   1.09202  -0.56323
O    -1.00617   2.28138  -0.24511
N    -1.33011   0.57212  -1.69142
C    -2.01733   1.40098  -2.66214
H    -1.69640   2.25833   3.96260
H    -0.12170   1.48333   4.29664
H    -1.59232   0.48811   4.17357
H    -1.12124   2.01171   1.70109
H     0.81414  -1.49632   0.77041
H     0.60793  -0.38776  -3.05298
H     1.54252   0.72217  -2.02556
H     2.36786  -0.59938  -2.90959
H    -1.25376  -0.42231  -1.87089
H    -1.37665   2.23476  -2.98934
H    -2.27171   0.78593  -3.53387
H    -2.94425   1.82842  -2.24646
