26
Generated by autodE on: 2022-06-24. E = -681.857531 Ha
C     3.26161  -2.62283   0.39170
N     1.95709  -2.00179   0.30868
C     1.81331  -0.70157   0.00504
O     2.78379   0.04216  -0.25906
C     0.44387  -0.14412  -0.01935
N     0.47288   1.18892  -0.22606
C    -0.36866   2.21780  -0.16162
C     0.11091   3.59473  -0.51726
C    -1.69509   2.06549   0.30397
N    -2.78745   2.02162   0.71521
C    -0.76019  -0.98736   0.06109
O    -0.77627  -2.02964   0.74681
N    -1.82034  -0.63808  -0.69742
C    -3.10663  -1.29187  -0.55640
H     3.13246  -3.69928   0.55897
H     3.86257  -2.20819   1.21896
H     3.82867  -2.47632  -0.54029
H     1.11690  -2.49222   0.61470
H     1.45891   1.44847  -0.42559
H     1.19996   3.59187  -0.67171
H    -0.36798   3.95265  -1.44405
H    -0.13178   4.31253   0.28178
H    -1.77029   0.18380  -1.28771
H    -3.03081  -2.36949  -0.76692
H    -3.50606  -1.16922   0.46369
H    -3.81001  -0.84126  -1.26684
