46
Generated by autodE on: 2022-06-24. E = -1139.562323 Ha. Imaginary frequency = -413.5 cm-1
C    -1.86065   1.03532   3.12338
N    -1.74981   0.90500   1.68555
C    -1.22227  -0.18068   1.10350
O    -0.83661  -1.17468   1.74577
C    -1.09762  -0.17290  -0.39613
C    -2.07008   0.66254  -1.15415
O    -2.22682   1.87129  -0.89019
N    -2.81750   0.04401  -2.08591
C    -3.72972   0.77662  -2.94203
N    -0.70507  -1.41440  -0.82679
C     0.08324  -1.64371  -1.92591
C    -0.19423  -1.06289  -3.28768
C     0.69589  -2.93351  -1.94708
N     1.22805  -3.97028  -2.00581
C     1.68144  -0.06448  -1.27030
C     0.78916   0.98310  -1.00856
C     0.99766   1.87172   0.19668
C     1.58774   1.06886   1.33229
C     1.48436   1.48936   2.73507
N     1.01027   2.74335   2.95406
O     1.83037   0.76740   3.69271
C     2.26900  -0.07583   1.05249
N     2.44699  -0.56810  -0.21072
C     3.30348  -1.73114  -0.40398
H    -2.78601   0.57129   3.50577
H    -1.86614   2.09898   3.39111
H    -1.00719   0.54780   3.61268
H    -2.04516   1.66046   1.06720
H    -2.68806  -0.94897  -2.24163
H    -3.19607   1.53972  -3.53135
H    -4.21140   0.07091  -3.62950
H    -4.50792   1.28543  -2.35206
H    -0.47757  -1.99355  -0.00863
H     0.67848  -1.23185  -3.93394
H    -0.39036   0.01379  -3.24950
H    -1.06175  -1.55586  -3.76033
H     2.07635  -0.25532  -2.26608
H     0.35677   1.47235  -1.88132
H     0.04649   2.34059   0.48586
H     1.66426   2.71371  -0.08703
H     0.81477   3.01931   3.91037
H     0.61999   3.30596   2.20862
H     2.73491  -0.65193   1.85381
H     4.27239  -1.57361   0.09178
H     3.48026  -1.87898  -1.47612
H     2.84322  -2.64373   0.00391
