12
Generated by autodE on: 2022-06-16. E = -469.079196 Ha
C     2.93654   0.44611   0.22692
O     1.52430   0.68033   0.08710
C     0.73571  -0.39179   0.09227
O     1.10633  -1.54208   0.20425
C    -0.68613  -0.02860  -0.05753
C    -1.70066  -1.01215  -0.08460
N    -2.51690  -1.84263  -0.10377
N    -1.02379   1.24706  -0.17117
N    -1.27577   2.33876  -0.26593
H     3.14768  -0.04424   1.18777
H     3.30216  -0.18143  -0.59803
H     3.40692   1.43499   0.19193
