24
Generated by autodE on: 2022-06-16. E = -850.687615 Ha. Imaginary frequency = -506.3 cm-1
C     2.94909  -0.85522   2.04874
O     2.49098  -0.40706   0.75706
C     1.40078  -0.97882   0.27695
O     0.78095  -1.88697   0.78086
C     0.94532  -0.27298  -0.97003
C     1.89432   0.47496  -1.73476
N     2.64299   1.12867  -2.33679
N     0.01608  -0.97705  -1.70497
N    -1.12062  -0.88410  -1.91738
C    -1.67713   0.81789  -0.93197
C    -2.77277   0.19110  -0.14927
O    -3.86314  -0.05098  -0.65405
C    -2.49391  -0.14754   1.26700
C    -1.37550   0.26866   1.88735
C    -0.36175   1.09122   1.18868
O     0.55898   1.61782   1.80308
C    -0.49967   1.24760  -0.28686
H     3.20489  -1.92264   2.00674
H     2.16608  -0.68232   2.79938
H     3.83648  -0.25369   2.27196
H    -1.98772   1.29817  -1.86274
H    -3.26418  -0.72466   1.78424
H    -1.17862   0.05302   2.94004
H     0.08358   2.06582  -0.71238
