43
Generated by autodE on: 2022-06-19. E = -884.208646 Ha
C     4.64841   1.24249  -1.13523
C     4.41313   1.03425   0.33410
C     5.49185   1.57786   1.22812
C     3.32742   0.41397   0.85648
C     2.21065  -0.15117   0.11901
C     1.15462  -0.73882   0.71550
C    -0.04811  -1.31369   0.02131
C     0.12248  -1.44216  -1.49369
C    -0.48133  -2.65062   0.63920
N    -1.89896  -2.80470   0.29091
C    -2.68118  -3.40216   1.35952
O    -2.41355  -1.42772   0.12458
C    -1.37221  -0.49547   0.34347
C    -1.40433  -0.09095   1.77402
N    -1.47731   0.20459   2.89394
C    -1.56138   0.73317  -0.53143
C    -0.82571   1.89612  -0.26335
C    -0.92875   3.00140  -1.11094
C    -1.77376   2.95674  -2.22432
C    -2.51615   1.80121  -2.48444
C    -2.41087   0.69039  -1.64282
H     4.74828   2.31989  -1.35570
H     5.60367   0.77853  -1.43771
H     3.85328   0.83555  -1.77284
H     6.46636   1.11524   0.98992
H     5.27561   1.40624   2.29272
H     5.62182   2.66313   1.06778
H     3.26788   0.32557   1.94778
H     2.23851  -0.08407  -0.97093
H     1.13844  -0.79649   1.80963
H    -0.78531  -1.84652  -1.95902
H     0.34313  -0.47575  -1.96461
H     0.95460  -2.12873  -1.70587
H     0.09368  -3.49171   0.22857
H    -0.33255  -2.62732   1.73381
H    -2.57699  -2.86480   2.32073
H    -3.74136  -3.43692   1.07299
H    -2.32730  -4.43541   1.49210
H    -0.16813   1.93990   0.60684
H    -0.34845   3.90181  -0.89704
H    -1.85632   3.82271  -2.88521
H    -3.18299   1.76118  -3.34891
H    -2.98424  -0.21308  -1.84810
