20
Generated by autodE on: 2022-07-27. E = -532.604686 Ha
C    -1.93077  -3.38515  -0.05777
N    -1.07481  -2.58542   0.78398
O    -0.78624  -1.48850   0.10741
C    -0.01910  -0.53785   0.58228
C     0.52526  -0.70030   1.88145
N     0.98672  -0.80713   2.94686
C     0.23007   0.62599  -0.24769
C     1.04730   1.67171   0.23141
C     1.29139   2.79148  -0.56160
C     0.72940   2.88954  -1.83869
C    -0.08331   1.85434  -2.31981
C    -0.33487   0.73097  -1.53772
H    -2.18086  -4.29287   0.50602
H    -2.86958  -2.86259  -0.31979
H    -1.43376  -3.68204  -1.00026
H     1.49036   1.60397   1.22712
H     1.92596   3.59350  -0.17820
H     0.92302   3.76807  -2.45791
H    -0.52490   1.92493  -3.31642
H    -0.96808  -0.07177  -1.91782
