43
Generated by autodE on: 2022-06-19. E = -884.137393 Ha. Imaginary frequency = -214.5 cm-1
C     3.47053   2.24015  -1.07660
C     3.60767   1.63224   0.29068
C     4.54605   2.35681   1.21350
C     2.94425   0.52189   0.70317
C     2.00567  -0.26545  -0.06619
C     1.31619  -1.32079   0.44701
C     0.33994  -2.11250  -0.27317
C     0.12692  -1.86818  -1.74174
C    -0.32063  -3.16192   0.34083
N    -2.44663  -2.49535   0.74542
C    -3.34190  -3.35823   0.00714
O    -2.45095  -1.30945   0.12100
C    -1.64344  -0.37227   0.60191
C    -1.19855  -0.48739   1.94268
N    -0.82019  -0.52130   3.04614
C    -1.35908   0.78712  -0.20749
C    -0.43180   1.75115   0.24741
C    -0.09197   2.83734  -0.55827
C    -0.66562   2.98639  -1.82426
C    -1.58765   2.03499  -2.28287
C    -1.93046   0.94242  -1.49196
H     3.14791   3.29272  -0.99505
H     4.44968   2.25912  -1.58793
H     2.75533   1.71625  -1.72309
H     5.55994   2.41403   0.77768
H     4.61806   1.87163   2.19808
H     4.21991   3.40207   1.36283
H     3.11381   0.18471   1.73298
H     1.83967   0.01454  -1.10888
H     1.47624  -1.58758   1.49696
H    -0.66998  -2.51149  -2.14006
H    -0.14024  -0.82079  -1.95270
H     1.05084  -2.07361  -2.30946
H    -0.10169  -3.41477   1.38016
H    -0.79414  -3.93518  -0.26396
H    -3.16338  -4.38580   0.35197
H    -4.39608  -3.10595   0.22529
H    -3.19004  -3.30580  -1.08487
H     0.02364   1.64510   1.23227
H     0.63152   3.56916  -0.19311
H    -0.39616   3.83744  -2.45348
H    -2.03978   2.14538  -3.27124
H    -2.64124   0.20085  -1.85824
