38
Generated by autodE on: 2022-06-18. E = -801.876410 Ha. Imaginary frequency = -351.2 cm-1
C    -0.58838   2.82762   1.10960
C    -0.67183   2.43376  -0.17793
C    -1.56007   3.14688  -1.16412
C     0.06510   1.28749  -0.72138
C     1.02874   0.52224  -0.01361
C     2.05937  -0.19697  -0.76360
C     3.14859  -0.80060  -0.23635
C     4.15936  -1.47450  -1.11933
C     3.43585  -0.86782   1.23657
N    -0.14939  -0.94926   0.77469
C    -0.62950  -0.53328   2.00881
C    -2.06390  -0.85439   2.35126
O     0.12304   0.00824   2.81209
N    -0.98137  -1.22530  -0.20938
C    -0.55890  -2.25815  -1.15859
N    -1.64944  -0.14779  -0.65065
C    -2.31536  -0.25709  -1.79085
N    -2.95503  -0.22747  -2.77246
H     0.04454   2.32104   1.83973
H    -1.16971   3.68279   1.46478
H    -2.33146   2.46583  -1.56042
H    -0.97659   3.49765  -2.03197
H    -2.06232   4.01108  -0.70744
H     0.09231   1.21803  -1.81262
H     1.29382   0.86306   0.98622
H     1.92362  -0.23043  -1.85027
H     3.91255  -1.37322  -2.18626
H     4.23109  -2.54988  -0.87694
H     5.16700  -1.05467  -0.95126
H     3.64301  -1.91112   1.53147
H     2.61572  -0.49430   1.86221
H     4.34874  -0.29457   1.47777
H    -2.20920  -0.70289   3.42768
H    -2.72698  -0.17490   1.79502
H    -2.32445  -1.88455   2.07160
H    -1.44814  -2.71602  -1.61196
H     0.06614  -1.81027  -1.94759
H     0.00954  -3.01293  -0.60667
