37
Generated by autodE on: 2022-06-18. E = -975.078557 Ha
C     3.65041  -0.84878  -2.17821
N     2.56153  -0.13268  -1.54462
C     2.05916  -0.49028  -0.35620
O     2.49917  -1.40561   0.34126
C     0.87179   0.38895   0.12316
C     1.46605   1.46589   1.06793
C     0.99810   2.87565   0.86844
O     2.33488   1.15496   1.86051
O     0.23156   1.00820  -0.97706
C    -0.98656   0.31385  -1.37445
C    -0.88565  -0.06169  -2.84474
C    -2.14965   1.27019  -1.12675
C    -0.99114  -0.95754  -0.46326
C    -2.36995  -1.51526  -0.19529
O    -2.97415  -2.14153  -1.05537
C    -2.98149  -1.26032   1.12605
C    -2.36864  -0.52649   2.07457
C    -1.02895   0.07319   1.87266
O    -0.63161   0.96330   2.60874
C    -0.18611  -0.52562   0.76805
H     4.39944  -1.13116  -1.42598
H     3.30046  -1.76798  -2.67764
H     4.12284  -0.20093  -2.92772
H     2.02708   0.54975  -2.07521
H     1.43422   3.25501  -0.07107
H    -0.09305   2.92773   0.76109
H     1.34282   3.49589   1.70590
H    -1.77199  -0.64291  -3.13911
H     0.00840  -0.67452  -3.02641
H    -0.83421   0.84211  -3.47029
H    -2.23347   1.55081  -0.06706
H    -3.10224   0.82349  -1.44760
H    -1.98642   2.18879  -1.70911
H    -0.43703  -1.74658  -0.99085
H    -3.98310  -1.67094   1.27742
H    -2.85813  -0.29097   3.02309
H     0.31580  -1.39022   1.23074
