25
Generated by autodE on: 2022-07-27. E = -593.354393 Ha
C     2.50199  -0.90484  -2.11206
N     1.36711  -0.32288  -1.42487
C     1.19177  -0.51924  -0.07874
O     1.97825  -1.25137   0.55309
C     0.08423   0.16680   0.56077
O    -0.88222   0.82305  -0.26289
C    -1.66889   0.22451  -1.07500
C    -1.66409  -1.23562  -1.22365
C    -2.56515   1.09314  -1.85613
C    -0.02909   0.50314   1.93717
C    -1.19835   1.39617   2.32818
O     0.75292   0.09343   2.82311
H     3.46205  -0.44832  -1.81094
H     2.56497  -1.98237  -1.90257
H     2.37396  -0.76550  -3.19376
H     0.91881   0.47302  -1.86591
H    -0.83773  -1.51734  -1.90109
H    -2.61008  -1.58273  -1.65615
H    -1.44490  -1.70871  -0.25189
H    -2.43484   2.14936  -1.59316
H    -3.60667   0.76893  -1.69301
H    -2.35827   0.93513  -2.92944
H    -1.20213   2.33579   1.75334
H    -2.16065   0.89519   2.13253
H    -1.12149   1.62230   3.40007
