37
Generated by autodE on: 2022-06-18. E = -975.001224 Ha. Imaginary frequency = -146.2 cm-1
C     3.60208  -0.29949  -2.57409
N     2.57595   0.36117  -1.78931
C     2.06803  -0.20738  -0.67774
O     2.56888  -1.20591  -0.15361
C     0.89511   0.52875  -0.08232
C     1.16807   1.37848   1.06534
C     0.25126   2.54079   1.36104
O     2.15511   1.15130   1.77414
O    -0.15206   0.93712  -0.84350
C    -0.77696   0.31572  -1.80288
C    -0.14707  -0.72650  -2.65609
C    -2.00979   0.99457  -2.26248
C    -1.49712  -1.46057  -0.07960
C    -2.74485  -0.77500   0.24764
O    -3.76011  -0.87056  -0.45377
C    -2.75666   0.05929   1.47295
C    -1.71808   0.06994   2.32892
C    -0.51011  -0.75290   2.08286
O     0.34890  -0.89255   2.95510
C    -0.41331  -1.41394   0.76785
H     4.50158  -0.48305  -1.96821
H     3.24536  -1.26934  -2.95977
H     3.86956   0.34362  -3.42102
H     2.09934   1.16366  -2.18926
H     0.68109   3.43778   0.88232
H    -0.76683   2.40671   0.98113
H     0.23567   2.71081   2.44619
H    -0.93785  -1.28147  -3.17675
H     0.49114  -1.42853  -2.10849
H     0.46924  -0.22181  -3.42217
H    -2.31317   1.78378  -1.56385
H    -2.82160   0.25790  -2.36630
H    -1.83459   1.42636  -3.26399
H    -1.52165  -2.13535  -0.93475
H    -3.66802   0.63317   1.65852
H    -1.73049   0.65012   3.25455
H     0.46819  -2.03518   0.61353
