49
Generated by autodE on: 2022-06-24. E = -1315.660133 Ha
C    -2.27926   2.87942   1.44462
O    -1.63230   2.16175   0.39363
C    -0.98521   0.96822   0.73058
C    -2.06282  -0.04103   1.16698
O    -2.29565  -0.22003   2.35040
C    -2.85389  -0.68496   0.10039
C    -4.19566  -1.23226   0.47469
C    -2.30508  -0.89160  -1.12938
C    -3.02930  -1.66961  -2.18141
C    -0.93417  -0.42724  -1.46293
O    -0.42499  -0.68029  -2.54406
C    -0.15767   0.48297  -0.50464
O     0.37828   1.59001  -1.17911
C    -0.38055   2.22043  -2.21221
C     1.09885  -0.16910   0.20882
C     0.75387  -1.52795   0.85627
C     1.48526  -1.90732   2.10498
O    -0.06303  -2.25315   0.31906
C     2.29400  -0.38493  -0.71087
C     3.38937   0.49265  -0.70044
C     4.47016   0.28858  -1.56191
C     4.47799  -0.79707  -2.44078
C     3.39804  -1.68345  -2.44676
C     2.31745  -1.48309  -1.58609
N     1.36870   0.81134   1.25995
N     0.06676   1.12966   1.74729
C    -0.08540   1.15020   3.06648
N    -0.12611   1.23468   4.23109
H    -1.54679   3.25489   2.17672
H    -3.03380   2.26822   1.96434
H    -2.77483   3.73349   0.96612
H    -4.47157  -0.94794   1.49708
H    -4.96832  -0.87015  -0.22191
H    -4.19797  -2.33313   0.40514
H    -2.49509  -1.63900  -3.13763
H    -4.05044  -1.28293  -2.32101
H    -3.12899  -2.72428  -1.87171
H    -0.08945   3.27987  -2.21368
H    -0.14400   1.77493  -3.19064
H    -1.46163   2.15074  -2.03351
H     2.54257  -1.61361   2.04829
H     1.04315  -1.36838   2.95956
H     1.38204  -2.98663   2.27463
H     3.42641   1.34738  -0.02515
H     5.31106   0.98533  -1.54039
H     5.32425  -0.95490  -3.11323
H     3.39408  -2.54156  -3.12251
H     1.48868  -2.18907  -1.60061
H     1.72600   1.66439   0.82509
