23
Generated by autodE on: 2022-07-27. E = -626.181911 Ha
C    -2.59294  -1.36841   1.08682
C    -1.65547  -1.07969  -0.04664
O    -1.88324  -1.48145  -1.18028
C    -0.41540  -0.26357   0.16509
N     0.08424  -0.00332   1.35870
N    -0.33205  -0.46255   2.53138
C     0.31067   0.00451   3.57974
N     0.81093   0.34495   4.58716
C     0.33050   0.25834  -0.99438
C    -0.35088   0.83141  -2.08645
C     0.36349   1.35716  -3.16137
C     1.76256   1.31677  -3.16966
C     2.44705   0.74643  -2.09325
C     1.73793   0.21742  -1.01388
H    -2.14919  -2.12306   1.75418
H    -2.77112  -0.47452   1.70179
H    -3.53192  -1.75185   0.66610
H     0.91020   0.61368   1.35746
H    -1.43972   0.88061  -2.08295
H    -0.17568   1.80714  -3.99788
H     2.31729   1.72597  -4.01704
H     3.53819   0.69927  -2.09697
H     2.28259  -0.25628  -0.19387
