23
Generated by autodE on: 2022-06-24. E = -626.187813 Ha
C    -1.51510  -2.66762  -0.45303
C    -2.03290  -1.26447  -0.49695
O    -3.20307  -0.98760  -0.74223
C    -1.05951  -0.16079  -0.24114
N    -1.60576   1.03268  -0.34145
N    -1.17375   2.26296  -0.17488
C     0.05537   2.48428   0.25335
N     1.08719   2.89331   0.63719
C     0.37412  -0.36886   0.03865
C     0.79268  -0.84516   1.29095
C     2.15218  -1.02641   1.54819
C     3.09780  -0.74267   0.55718
C     2.68301  -0.27978  -0.69537
C     1.32534  -0.09292  -0.95780
H    -1.14102  -2.89783   0.55751
H    -2.31678  -3.36654  -0.72184
H    -0.66193  -2.77930  -1.14070
H    -2.60489   0.98557  -0.60094
H     0.05048  -1.05727   2.06315
H     2.47506  -1.38705   2.52728
H     4.16152  -0.88431   0.76187
H     3.41999  -0.06045  -1.47098
H     0.99517   0.27593  -1.93106
