28
Generated by autodE on: 2022-06-07. E = -504.203281 Ha
C    -2.40444   0.55046  -1.46032
C    -0.98345   0.79643  -1.87822
O    -0.68506   1.06527  -3.02987
C     0.11871   0.64822  -0.81260
C     1.25385   1.64749  -1.08555
C    -0.36629   0.75655   0.56599
C    -0.48387   0.49387   1.74559
C    -0.34812  -0.27586   2.97875
C     0.82622  -1.26488   2.77306
C     0.82779  -2.03183   1.43225
C     1.51469  -1.36710   0.20328
C     0.62891  -0.83716  -0.94364
H    -3.05625   0.49546  -2.34188
H    -2.73144   1.37780  -0.80876
H    -2.48085  -0.36992  -0.86182
H     2.09169   1.47196  -0.39637
H     1.61224   1.53471  -2.11781
H     0.90406   2.68165  -0.94763
H    -0.17033   0.35649   3.86336
H    -1.28222  -0.83179   3.17084
H     0.80071  -1.98819   3.60454
H     1.77597  -0.71204   2.86993
H     1.35649  -2.97987   1.61962
H    -0.20582  -2.32055   1.17199
H     2.16253  -2.13005  -0.25672
H     2.20130  -0.57399   0.54318
H    -0.24552  -1.50006  -1.05157
H     1.18272  -0.88943  -1.89432
