31
Generated by autodE on: 2022-06-07. E = -913.418965 Ha
C     5.28454   0.41377   0.18240
O     3.91304   0.77815  -0.02685
C     2.99812  -0.16891   0.20245
O     3.26276  -1.30565   0.57347
C     1.63492   0.29213  -0.03877
C     1.36619   1.58825  -0.51617
N     1.19640   2.66933  -0.92360
N     0.68717  -0.65954   0.16223
C    -0.62780  -0.70586   0.09660
C    -1.15040  -2.07860   0.31260
O    -0.41782  -3.04009   0.48766
O    -2.47610  -2.13582   0.30994
C    -3.06836  -3.42967   0.50754
C    -1.48842   0.46762  -0.10912
C    -1.38363   1.57765   0.74852
C    -2.21380   2.68398   0.56753
C    -3.14892   2.69724  -0.47153
C    -3.26054   1.59431  -1.32579
C    -2.44185   0.48060  -1.14335
H     5.56820  -0.41677  -0.48003
H     5.87232   1.30709  -0.05790
H     5.44991   0.12087   1.22935
H     1.11508  -1.57156   0.40368
H    -4.15158  -3.27298   0.45911
H    -2.74471  -4.12126  -0.28321
H    -2.78260  -3.83257   1.48963
H    -0.65745   1.56733   1.56383
H    -2.12907   3.53935   1.24126
H    -3.79464   3.56668  -0.61467
H    -3.98986   1.60229  -2.13884
H    -2.52842  -0.38108  -1.80699
