59
Generated by autodE on: 2022-06-07. E = -1417.616641 Ha. Imaginary frequency = -297.9 cm-1
C    10.55991 -21.35049   4.80819
O     9.82957 -20.25012   4.24190
C     8.99479 -20.53877   3.24440
O     8.83062 -21.65909   2.78977
C     8.30194 -19.34968   2.70998
C     8.23562 -18.17747   3.50774
N     8.24212 -17.24232   4.20406
N     7.42863 -19.65902   1.70495
C     6.89368 -18.82506   0.78086
C     6.10861 -17.64001   1.22989
O     5.75066 -16.73030   0.50460
O     5.79086 -17.71466   2.52304
C     5.16392 -16.56675   3.11004
C     6.60166 -19.43039  -0.53815
C     7.53867 -20.32986  -1.08779
C     7.30393 -20.93318  -2.32185
C     6.13802 -20.63893  -3.03728
C     5.20994 -19.73764  -2.50712
C     5.43621 -19.13587  -1.26824
C     8.82334 -17.68866   0.34028
C     9.69521 -18.07472   1.14331
C    11.11707 -18.13974   1.56312
C    11.38579 -17.36495   2.86483
C    11.58316 -19.60664   1.65626
C    12.81535 -19.90748   2.46422
O    10.99418 -20.48702   1.04915
C    11.97073 -17.56038   0.37713
C    11.92497 -16.04684   0.13704
C    10.58072 -15.39022  -0.21758
C     9.76974 -16.08941  -1.32803
C     8.51300 -16.81314  -0.81109
H    11.22624 -20.91288   5.55943
H    11.14097 -21.86384   4.03048
H     9.86584 -22.06047   5.28016
H     7.60860 -20.61238   1.37711
H     4.19746 -16.36927   2.62528
H     5.01818 -16.81172   4.16785
H     5.81473 -15.68641   3.01055
H     8.47434 -20.52752  -0.56026
H     8.04291 -21.62345  -2.73467
H     5.95758 -21.10520  -4.00852
H     4.29729 -19.50311  -3.05965
H     4.70087 -18.43900  -0.86787
H    12.46610 -17.23070   3.01593
H    10.92036 -16.37163   2.81851
H    10.97517 -17.89320   3.73361
H    12.59346 -19.77910   3.53436
H    13.63048 -19.20985   2.22316
H    13.13414 -20.94110   2.27933
H    13.02285 -17.82607   0.56747
H    11.67333 -18.10142  -0.53366
H    12.35303 -15.52496   1.00841
H    12.62762 -15.85952  -0.69383
H     9.95834 -15.30279   0.68776
H    10.80230 -14.35459  -0.52240
H     9.43883 -15.35435  -2.07892
H    10.40750 -16.80923  -1.86712
H     7.76372 -16.07166  -0.49294
H     8.03754 -17.39079  -1.61955
