41
Generated by autodE on: 2022-05-29. E = -1023.177373 Ha. Imaginary frequency = -158.1 cm-1
C    -1.94655  -3.53539  -0.84384
C    -2.45390  -2.21433  -0.29686
O    -3.66863  -1.94946  -0.40982
C    -1.61302  -1.36086   0.50992
C    -2.19965  -0.78301   1.76479
O    -0.26509  -1.42692   0.54644
C     0.67111  -1.40604  -0.37357
C     0.44704  -1.92545  -1.75005
C     1.99360  -1.08118   0.14755
C     3.14129  -1.17393  -0.67020
C     4.39464  -0.80468  -0.18188
C     4.53675  -0.34215   1.12995
C     3.40744  -0.25558   1.95520
C     2.15338  -0.62081   1.47612
C    -0.08026   0.93750  -1.24365
C     0.52686   1.95179  -0.25349
C     0.01716   3.35935  -0.64744
C    -1.27733   3.28954  -0.34044
F    -2.25518   4.17178  -0.53004
C    -1.54869   1.88710   0.23423
O    -0.29404   1.68773   0.91003
C    -1.39943   0.88528  -0.93308
H    -1.93021  -3.53661  -1.94443
H    -0.95797  -3.81946  -0.46593
H    -2.67775  -4.29669  -0.53045
H    -2.38170  -1.56480   2.52612
H    -3.17034  -0.32332   1.53558
H    -1.53854  -0.02433   2.19949
H     0.59513  -3.01686  -1.80017
H     1.15152  -1.46427  -2.45155
H    -0.57320  -1.70485  -2.08678
H     3.05825  -1.53672  -1.69469
H     5.26852  -0.88241  -0.83290
H     5.51958  -0.05354   1.50924
H     3.50794   0.10208   2.98269
H     1.28055  -0.54524   2.12374
H     0.41845   0.60795  -2.15049
H     1.59386   1.85656  -0.02592
H     0.58739   4.14674  -1.13531
H    -2.41371   1.79488   0.89686
H    -2.23119   0.47918  -1.50412
