28
Generated by autodE on: 2022-06-19. E = -724.754221 Ha
C    -2.69139  -3.08670  -0.42674
N    -2.07645  -1.78743  -0.23886
C    -0.74017  -1.65242  -0.13782
O     0.02892  -2.62245  -0.19046
C    -0.20923  -0.26779   0.08410
N     1.01724  -0.25345   0.49406
C     2.12856  -0.38146   0.93472
C     3.48934  -0.50699   0.44249
C     3.90703  -1.93078   0.18198
O     4.22658   0.46550   0.33398
C    -0.93975   1.00559  -0.07403
C    -0.63884   2.09110   0.77269
C    -1.29590   3.31144   0.62377
C    -2.26683   3.47373  -0.37109
C    -2.56731   2.40606  -1.22151
C    -1.90832   1.18298  -1.08133
H    -2.56090  -3.73032   0.45900
H    -2.24856  -3.60602  -1.28990
H    -3.76425  -2.94737  -0.60721
H    -2.67252  -0.97745  -0.11116
H     4.69430  -1.93568  -0.58544
H     3.05139  -2.54796  -0.12965
H     4.31974  -2.35769   1.11170
H     0.11264   1.97048   1.55597
H    -1.05244   4.14041   1.29239
H    -2.78307   4.42958  -0.48492
H    -3.31297   2.52626  -2.01077
H    -2.13264   0.37131  -1.77416
