20
Generated by autodE on: 2022-07-27. E = -440.660183 Ha
C     2.68042   2.41980  -0.71793
O     1.66763   1.85282   0.10547
C     0.98394   0.78309  -0.42102
O     1.25065   0.34693  -1.55642
C    -0.00042   0.28048   0.45101
N    -0.73424  -0.79276  -0.00820
C    -1.70092  -1.46373   0.56266
C    -2.14049  -1.07323   1.92971
C    -2.34074  -2.59697  -0.16209
H     3.11259   3.25151  -0.14610
H     2.26564   2.80213  -1.66432
H     3.46933   1.68710  -0.95179
H    -0.20154   0.69094   1.43494
H    -0.45394  -1.08679  -0.95049
H    -2.95295  -1.72138   2.28182
H    -2.48986  -0.02482   1.94524
H    -1.30022  -1.13527   2.64490
H    -1.89898  -2.74834  -1.15778
H    -3.42363  -2.41644  -0.27835
H    -2.23905  -3.53122   0.41718
