20
Generated by autodE on: 2022-06-01. E = -3183.644352 Ha
F     2.27318  -0.24266   0.32641
C     1.46115  -1.15925  -0.21947
F     1.36410  -2.18058   0.66720
F     2.10055  -1.66287  -1.29855
C     0.12161  -0.63334  -0.58444
C    -0.51617   0.49110  -0.20930
Br    0.06549   1.88668   0.91471
C    -1.95300   0.40805  -0.69034
C    -2.62708  -0.67942   0.20928
C    -1.91091  -1.98784  -0.22949
C    -0.91012  -1.48612  -1.31891
C    -1.74577  -0.38275  -1.99882
H    -2.48624   1.36391  -0.74217
H    -2.50411  -0.45469   1.27814
H    -3.70463  -0.71553  -0.00623
H    -1.38865  -2.49250   0.59440
H    -2.61778  -2.70335  -0.67430
H    -0.48632  -2.27106  -1.95668
H    -1.18217   0.18042  -2.75633
H    -2.68775  -0.75567  -2.42752
