40
Generated by autodE on: 2022-06-01. E = -3624.292342 Ha. Imaginary frequency = -254.1 cm-1
C     4.45206   1.21787  -0.11686
O     3.33620   0.73195   0.63484
C     2.74220  -0.38498   0.17330
O     3.15409  -1.00999  -0.79531
C     1.53136  -0.69773   0.92135
N     0.95734  -1.90607   0.60014
C    -0.14455  -2.43398   1.12541
C    -0.48639  -2.30153   2.57460
C    -0.74273  -3.60710   0.41426
C    -1.24067  -0.08182   0.46922
C    -2.06428  -0.69884  -0.58448
F    -2.76044   0.20035  -1.35932
F    -3.03303  -1.50311  -0.06656
F    -1.36843  -1.44063  -1.47417
C    -1.92805   0.63399   1.64125
C    -2.45919   2.00345   1.11217
C    -1.14462   2.77680   0.79570
C    -0.02804   1.78657   1.24427
C    -0.71736   1.13193   2.45533
C    -0.03389   0.61824   0.25845
Br    0.55901   1.06754  -1.55439
H     4.80306   2.11583   0.40544
H     4.14500   1.47520  -1.14164
H     5.25527   0.46736  -0.15675
H     1.50552  -0.38277   1.96071
H     1.20071  -2.22521  -0.34098
H    -0.31865  -3.28281   3.05472
H    -1.54958  -2.05796   2.70848
H     0.11821  -1.56256   3.10745
H    -0.46280  -3.63754  -0.64645
H    -1.83825  -3.57621   0.49081
H    -0.41011  -4.54153   0.90063
H    -2.67427   0.03371   2.17832
H    -3.03734   2.50787   1.90216
H    -3.11060   1.88985   0.23748
H    -1.04791   3.04185  -0.26596
H    -1.07064   3.70484   1.38159
H     0.95886   2.23812   1.40326
H    -1.00289   1.87213   3.21757
H    -0.13240   0.34420   2.93684
