23
Generated by autodE on: 2022-06-23. E = -351.521382 Ha
C     3.62681   0.52505  -0.93329
C     2.53984   0.46867  -0.13257
C     2.63703   0.76497   1.34218
C     1.23767   0.11351  -0.69324
C     0.07645   0.01896   0.00217
C    -1.18978  -0.33937  -0.60364
C    -2.38897  -0.46039   0.02002
C    -3.62116  -0.84192  -0.75068
C    -2.60848  -0.23653   1.48936
H     4.61291   0.78764  -0.54015
H     3.55296   0.30924  -2.00367
H     2.31028  -0.09960   1.94361
H     3.66732   1.01663   1.63070
H     1.98324   1.60765   1.62221
H     1.21996  -0.09109  -1.77055
H     0.08655   0.22143   1.07657
H    -1.16044  -0.53102  -1.68311
H    -4.40084  -0.06525  -0.65210
H    -3.41307  -0.99239  -1.82018
H    -4.06361  -1.77034  -0.34672
H    -3.03277  -1.14397   1.95431
H    -3.35323   0.56369   1.64675
H    -1.69624   0.03308   2.03692
