24
Generated by autodE on: 2022-06-23. E = -758.647667 Ha
C    -2.01526  -2.78083   0.23169
N    -1.77204  -1.39994  -0.13726
C    -0.84243  -0.66747   0.48218
O    -0.11325  -1.06701   1.39377
C    -0.75523   0.77500   0.06509
O     0.30615   1.48207   0.22898
N     1.57464   1.08968   0.45911
C     1.90738  -0.08767  -0.17531
O     1.28237  -0.65398  -1.06385
O     3.11846  -0.46839   0.24768
C     3.69054  -1.60614  -0.41008
C    -1.94316   1.61835  -0.30711
C    -1.77563   3.10552  -0.27532
O    -2.97434   1.06254  -0.65377
H    -2.57310  -3.27220  -0.57457
H    -2.59751  -2.85467   1.16526
H    -1.05850  -3.29969   0.38154
H    -2.43978  -0.90373  -0.72660
H     4.64189  -1.80037   0.09885
H     3.02648  -2.47813  -0.32003
H     3.86889  -1.39015  -1.47383
H    -2.74201   3.57718  -0.49093
H    -1.39536   3.43077   0.70531
H    -1.03350   3.41258  -1.02956
