23
Generated by autodE on: 2022-10-21. E = -646.320326 Ha
C     3.72042  -1.63491  -0.46982
N     2.76084  -0.59969  -0.15490
C     1.42928  -0.77558  -0.22719
O     0.87609  -1.83241  -0.56874
C     0.60837   0.41707   0.13998
N    -0.69163   0.21382   0.06352
C    -1.81909  -0.09002  -0.04270
C    -3.20048  -0.47037  -0.18761
C    -3.40181  -1.89269  -0.62629
O    -4.09348   0.33319   0.04370
C     1.08869   1.73121   0.55692
C     0.05550   2.78239   0.87314
O     2.29808   1.97608   0.64676
H     4.35898  -1.85987   0.39950
H     4.37280  -1.33003  -1.30388
H     3.18530  -2.54729  -0.75797
H     3.07265   0.32724   0.14183
H    -2.45002  -2.40031  -0.83597
H    -4.03833  -1.89628  -1.52505
H    -3.93781  -2.42949   0.17332
H     0.56238   3.70430   1.18425
H    -0.61561   2.43919   1.67659
H    -0.57051   2.98583  -0.01062
