8
Generated by autodE on: 2022-10-21. E = -651.547900 Ha
C    -2.87714  -0.28947  -0.07545
O    -1.88444   0.74433   0.13783
C    -0.64393   0.37138   0.07084
C     0.52718   0.06682   0.01689
Cl    2.13137  -0.34114  -0.05570
H    -3.85147   0.20436   0.01526
H    -2.75742  -0.72007  -1.08051
H    -2.77141  -1.07217   0.69013
