31
Generated by autodE on: 2022-10-21. E = -1297.851668 Ha. Imaginary frequency = -377.8 cm-1
C     3.52564  -1.87540  -0.66634
N     2.45310  -1.18126   0.01713
C     2.25733   0.14324  -0.16356
O     2.99098   0.82078  -0.88902
C     1.08039   0.73094   0.54818
C     0.77640   2.17999   0.59089
C    -0.37592   2.60065   1.47057
O     1.40442   2.98939  -0.08017
N     0.31261  -0.07436   1.25287
C    -0.68461  -0.74037   1.30521
C    -1.41576  -1.65069   2.21369
C    -2.58616  -1.05256   2.92142
O    -1.04929  -2.80936   2.27737
C    -1.53732  -0.46383  -0.72498
O    -2.57986  -1.24528  -0.50101
C    -3.46428  -1.38438  -1.63249
C    -0.80227   0.28653  -1.37811
Cl   -0.10550   1.21394  -2.57506
H     3.52644  -2.92462  -0.34759
H     4.50408  -1.43060  -0.42565
H     3.39836  -1.83691  -1.76046
H     1.83054  -1.71577   0.61236
H    -0.47881   3.69183   1.42412
H    -1.31057   2.12930   1.12668
H    -0.21417   2.28372   2.51262
H    -3.02183  -1.78902   3.60927
H    -2.27564  -0.14520   3.46421
H    -3.33092  -0.74622   2.16842
H    -4.27459  -2.04879  -1.30850
H    -3.86785  -0.40096  -1.91806
H    -2.92218  -1.82849  -2.48125
