14
Generated by autodE on: 2022-06-21. E = -270.683219 Ha
C    -1.03301   1.19809   0.13573
C    -0.81682  -0.25609  -0.17119
C    -2.03825  -1.04626  -0.51988
C     0.40556  -0.85445  -0.14214
C     1.66503  -0.20157   0.18132
O     1.82542   0.98094   0.47537
H    -0.68934   1.43967   1.15417
H    -0.44179   1.83593  -0.54015
H    -2.09406   1.46931   0.04508
H    -2.76931  -0.99035   0.30593
H    -2.53776  -0.59758  -1.39658
H    -1.81538  -2.10085  -0.73263
H     0.47814  -1.92019  -0.37783
H     2.55127  -0.88079   0.14691
