46
Generated by autodE on: 2022-06-21. E = -1164.205058 Ha. Imaginary frequency = -283.3 cm-1
C    -3.85079  -2.82395   0.30735
N    -3.09591  -1.62653  -0.00190
C    -1.93804  -1.35087   0.61914
O    -1.39357  -2.11398   1.42827
C    -1.31226  -0.02507   0.31928
C    -2.16869   1.19818   0.27142
O    -3.35413   1.12421  -0.09146
N    -1.58956   2.36358   0.60763
C    -2.30459   3.61938   0.49402
O    -0.08188   0.21259   0.76955
C     1.03118  -0.49375   0.55958
C     1.02279  -1.91410   0.40928
N     1.19353  -3.04894   0.20838
C     2.27680   0.14964   0.97723
C     3.49971  -0.54939   0.89777
C     4.69782   0.08345   1.22630
C     4.70039   1.41626   1.64770
C     3.48992   2.11327   1.74274
C     2.28865   1.49169   1.41216
C     0.88424  -0.11535  -1.84514
C     1.95665  -1.07061  -2.28351
C     1.27523   1.33551  -1.83164
C    -0.45889  -0.50507  -1.92590
C    -1.52273   0.37141  -2.39436
O    -2.59848  -0.03633  -2.82268
H    -4.64453  -2.94685  -0.43998
H    -3.19515  -3.70607   0.27922
H    -4.31175  -2.77457   1.30879
H    -3.53376  -0.85860  -0.50826
H    -0.59836   2.37232   0.81710
H    -3.23377   3.59659   1.08311
H    -1.66409   4.42500   0.87243
H    -2.57089   3.83707  -0.55345
H     3.51271  -1.59189   0.57826
H     5.63509  -0.47255   1.15565
H     5.63975   1.90923   1.90733
H     3.48088   3.15159   2.08116
H     1.35612   2.04667   1.50141
H     2.89042  -0.92745  -1.71838
H     1.64101  -2.11940  -2.22083
H     2.18982  -0.85021  -3.34066
H     0.60531   1.94844  -1.21538
H     1.24866   1.73395  -2.86098
H     2.30386   1.45685  -1.46498
H    -0.68293  -1.57306  -2.00727
H    -1.30466   1.46141  -2.38748
