43
Generated by autodE on: 2022-06-21. E = -1032.903692 Ha
C     2.35369   2.51764  -2.89139
N     1.46083   1.91808  -1.91933
C     1.72542   0.74964  -1.33528
O     2.76799   0.10414  -1.53274
C     0.64603   0.21391  -0.38687
C     1.20208  -0.05712   1.03441
O     0.43590   0.03071   2.00292
N     2.48441  -0.40720   1.14703
C     3.05803  -0.79908   2.41942
O    -0.39285   1.16604  -0.28786
C    -1.65368   0.54069  -0.00461
C    -2.71578   1.20359  -0.88598
C    -2.06703   0.80324   1.45399
C    -1.75100   2.14390   2.04931
O    -2.76065  -0.01849   2.03240
C    -1.48052  -0.96883  -0.33425
C    -1.67560  -1.94674   0.80832
O    -2.41054  -2.91181   0.70393
C    -0.05212  -1.07286  -0.97839
C    -0.19597  -0.94022  -2.50251
C     0.68141  -2.37798  -0.66201
H     2.30030   1.99944  -3.86314
H     2.07189   3.56784  -3.03535
H     3.39208   2.46925  -2.53450
H     0.55309   2.33192  -1.72820
H     3.02184  -0.47637   0.28171
H     4.13417  -0.96486   2.28821
H     2.59793  -1.72768   2.79570
H     2.90686  -0.01470   3.17622
H    -3.70768   0.79035  -0.65370
H    -2.73467   2.28974  -0.71530
H    -2.48970   1.01336  -1.94448
H    -0.76589   2.50679   1.73670
H    -1.82295   2.08689   3.14331
H    -2.50757   2.86172   1.68779
H    -2.22405  -1.26748  -1.08361
H    -1.04679  -1.80525   1.70883
H     0.78314  -1.01159  -2.99733
H    -0.66430   0.01129  -2.78833
H    -0.82650  -1.75819  -2.88027
H     1.67800  -2.36899  -1.12573
H     0.11736  -3.22708  -1.07567
H     0.81141  -2.55410   0.41451
