14
Generated by autodE on: 2022-06-21. E = -270.687345 Ha
C    -1.53841   1.75476  -0.33733
C    -0.86935   0.44894  -0.03336
C    -1.79855  -0.65066   0.38608
C     0.47972   0.32858  -0.14674
C     1.24813  -0.87554   0.11535
O     2.46957  -0.93930  -0.00186
H    -2.10153   2.10628   0.54455
H    -0.82277   2.53220  -0.63802
H    -2.28197   1.62079  -1.14210
H    -1.30237  -1.60305   0.60509
H    -2.54869  -0.81848  -0.40534
H    -2.36177  -0.33362   1.28019
H     1.07139   1.19481  -0.46152
H     0.68098  -1.77755   0.43736
