35
Generated by autodE on: 2022-05-26. E = -825.301688 Ha
C    -1.98669  -3.18267   0.99985
C    -2.52809  -2.78285  -0.33952
O    -3.61318  -3.14297  -0.75553
C    -1.67143  -1.82593  -1.19094
C    -2.02322  -0.41115  -0.83659
C    -0.89224   0.20550  -0.41660
C    -0.75405   1.61628  -0.01016
C     0.31664   2.40377  -0.47272
C     0.42040   3.74602  -0.10439
C    -0.53902   4.32346   0.73423
C    -1.60850   3.55054   1.19751
C    -1.71594   2.20806   0.82805
C     0.18298  -0.82314  -0.50500
C     1.59120  -0.62674  -0.10058
C     1.91000   0.08600   1.06873
C     3.24095   0.23481   1.46278
C     4.26900  -0.31338   0.68904
C     3.95979  -1.02394  -0.47574
C     2.62930  -1.18530  -0.86545
N    -0.24629  -1.96315  -0.95584
H    -2.77861  -3.64420   1.60408
H    -1.16686  -3.90415   0.85204
H    -1.55687  -2.31188   1.51848
H    -1.91922  -2.05308  -2.24145
H    -3.01852   0.02100  -0.93521
H     1.06456   1.96357  -1.13421
H     1.25496   4.34543  -0.47582
H    -0.45288   5.37284   1.02578
H    -2.36080   3.99334   1.85461
H    -2.54433   1.60206   1.20157
H     1.11322   0.51062   1.68077
H     3.47626   0.78238   2.37831
H     5.31061  -0.18774   0.99391
H     4.75922  -1.45359  -1.08391
H     2.38479  -1.73821  -1.77387
