21
Generated by autodE on: 2022-05-26. E = -516.643223 Ha
C    -4.75634   0.04803  -0.18731
C    -3.24452   0.01338  -0.25700
O    -2.67093  -0.19723  -1.34872
C    -2.54263   0.23037   0.96399
N    -1.20632   0.19903   0.90824
C    -0.07022   0.13103   0.64555
C     1.29552   0.03573   0.29990
C     1.62958  -0.22057  -1.04958
C     2.97006  -0.31990  -1.41097
C     3.97694  -0.16788  -0.44992
C     3.64093   0.08576   0.88526
C     2.30713   0.18954   1.27221
H    -5.15641  -0.91129  -0.55456
H    -5.13693   0.23371   0.82660
H    -5.13098   0.83372  -0.86391
H    -3.00970   0.41619   1.92928
H     0.83239  -0.33622  -1.78580
H     3.23139  -0.51760  -2.45269
H     5.02609  -0.24734  -0.74224
H     4.42671   0.20392   1.63437
H     2.03705   0.38618   2.31061
