35
Generated by autodE on: 2022-05-26. E = -825.170622 Ha. Imaginary frequency = -430.9 cm-1
C    -2.29944  -2.97588   1.10243
C    -2.60001  -3.01710  -0.37625
O    -3.68263  -3.42303  -0.81405
C    -1.59937  -2.48493  -1.28911
C    -2.41263  -0.32596  -1.23034
C    -1.53186   0.42592  -0.78117
C    -0.80416   1.55252  -0.26900
C     0.22293   2.16039  -1.02168
C     0.96523   3.21159  -0.48600
C     0.70391   3.67877   0.80752
C    -0.31487   3.08590   1.55992
C    -1.06174   2.03141   1.03245
C     0.25180  -1.18865  -0.45451
C     1.45637  -0.61440   0.04335
C     1.50030  -0.13292   1.36797
C     2.62766   0.55379   1.81117
C     3.70370   0.78065   0.94504
C     3.65697   0.30696  -0.37117
C     2.53842  -0.38435  -0.83128
N    -0.39171  -2.12524  -0.83962
H    -3.18572  -3.29573   1.66552
H    -1.45151  -3.63774   1.34162
H    -2.01114  -1.95744   1.40946
H    -1.69194  -2.70924  -2.35466
H    -3.37962  -0.59346  -1.63073
H     0.44538   1.78427  -2.02185
H     1.76261   3.66423  -1.08021
H     1.29354   4.49713   1.22668
H    -0.52585   3.44068   2.57170
H    -1.84467   1.55924   1.62925
H     0.64731  -0.29244   2.02815
H     2.66206   0.92676   2.83686
H     4.57933   1.33118   1.29569
H     4.49584   0.48433  -1.04760
H     2.48489  -0.73884  -1.86188
