59
Generated by autodE on: 2022-06-13. E = -1529.869472 Ha
C     2.73662   3.89997  -0.22799
O     2.46820   2.57662  -0.71830
C     1.92127   1.71980   0.13816
O     1.69086   1.99677   1.29651
C     1.69195   0.33997  -0.53556
C     3.08916  -0.31084  -0.57849
N     1.09008   0.54077  -1.85639
C     1.86369   0.33271  -3.06593
C    -0.26599   0.03617  -1.91190
C    -1.10665   0.88000  -2.78136
N    -1.73339   1.50106  -3.53501
C    -0.77933  -0.09685  -0.43630
C    -1.35582   1.24552   0.07235
C    -2.42382   1.28174   0.98334
C    -2.95253   2.49314   1.43259
C    -2.43255   3.70699   0.97540
C    -1.38371   3.68970   0.05510
C    -0.85816   2.47478  -0.39143
C    -1.84345  -1.20714  -0.34716
C    -2.06951  -1.92153   0.84142
C    -3.04205  -2.92221   0.91183
C    -3.82859  -3.22454  -0.20136
C    -3.63276  -2.50776  -1.38349
C    -2.65368  -1.51356  -1.45340
C     0.61428  -0.50354   0.25389
C     0.82367  -2.00259  -0.06280
O     0.95756  -2.44270  -1.18433
O     0.79257  -2.76635   1.02103
C     0.82672  -4.18944   0.82102
C     0.70005  -0.31087   1.77806
O    -0.21950  -0.02093   2.50954
O     1.92423  -0.58836   2.22273
C     2.15360  -0.41798   3.62683
H     1.80162   4.37844   0.09701
H     3.17418   4.44900  -1.06917
H     3.44264   3.86110   0.61358
H     3.44458  -0.48373   0.44347
H     3.79732   0.35995  -1.07957
H     3.06917  -1.26356  -1.11746
H     2.07791  -0.73291  -3.27032
H     2.80855   0.88770  -3.01904
H     1.29793   0.73354  -3.92088
H    -0.29127  -0.96649  -2.37296
H    -2.85466   0.35547   1.35693
H    -3.78118   2.48345   2.14460
H    -2.84635   4.65485   1.32720
H    -0.96748   4.62410  -0.32836
H    -0.05242   2.50320  -1.12207
H    -1.49252  -1.69571   1.73332
H    -3.18477  -3.46242   1.85057
H    -4.58915  -4.00682  -0.14716
H    -4.24181  -2.72104  -2.26490
H    -2.54509  -0.97901  -2.39599
H    -0.04906  -4.50314   0.23537
H     0.79689  -4.63113   1.82292
H     1.74894  -4.47872   0.29889
H     1.97654   0.62862   3.91376
H     3.20280  -0.68605   3.79475
H     1.49276  -1.07732   4.20733
