21
Generated by autodE on: 2022-06-13. E = -532.914990 Ha
C     3.74555  -0.44086   0.05138
O     2.45210  -0.99902  -0.18742
C     1.39544  -0.17838   0.01366
O     1.56189   0.98457   0.38237
C     0.12349  -0.83136  -0.25233
C     0.07540  -2.26304  -0.70101
N    -1.03832  -0.14529  -0.09693
C    -2.28011  -0.89595  -0.38818
C    -1.17103   1.14261   0.29342
C    -2.41502   1.76922   0.42855
N    -3.41381   2.36755   0.56641
H     3.93288   0.41524  -0.61407
H     3.84432  -0.11115   1.09651
H     4.46364  -1.24273  -0.15824
H    -0.48582  -2.90132   0.00140
H     1.09100  -2.66037  -0.77333
H    -0.39951  -2.37326  -1.69001
H    -2.26236  -1.24001  -1.42841
H    -3.14601  -0.24835  -0.23383
H    -2.34799  -1.76159   0.28039
H    -0.26632   1.70202   0.50853
