21
Generated by autodE on: 2022-07-27. E = -532.909477 Ha
C     1.48865   2.25535   0.88645
O     0.86699   1.22552   0.11309
C     1.04883  -0.04023   0.52567
O     1.82610  -0.32280   1.43021
C     0.34040  -1.04486  -0.27289
C     0.92532  -2.42536  -0.30259
N    -0.74709  -0.76159  -1.01807
C    -1.09024  -1.71822  -2.09414
C    -1.63449   0.25369  -0.86418
C    -1.75305   1.01232   0.30274
N    -1.91514   1.64307   1.27687
H     1.15636   2.20746   1.93335
H     1.17309   3.20380   0.43594
H     2.58425   2.16545   0.84683
H     1.65310  -2.51575   0.51181
H     1.45227  -2.63940  -1.24888
H     0.15898  -3.20471  -0.16900
H    -1.86171  -1.27404  -2.72990
H    -0.19784  -1.94748  -2.68684
H    -1.48110  -2.64104  -1.64608
H    -2.35222   0.41156  -1.66621
