49
Generated by autodE on: 2022-06-02. E = -1397.974741 Ha
C    -1.33336   0.36724   4.41316
O    -1.61551   0.16598   3.01704
C    -0.66677  -0.40693   2.29249
O     0.35740  -0.87635   2.72631
C    -1.08977  -0.53540   0.80011
C    -2.36417   0.27423   0.52962
O    -2.35492   1.42871   0.15893
O    -3.46621  -0.41805   0.76182
C    -4.71177   0.28473   0.60189
N    -1.32517  -1.97725   0.65896
C    -0.39942  -2.41325  -0.11756
C     0.48916  -1.36825  -0.63685
C     0.07448  -0.17783  -0.13587
C     0.56023   1.21861  -0.48026
C     2.11445   1.39720  -0.33840
C     2.81653   0.74970   0.82419
O     2.69006   2.15752  -1.09027
C     0.10408   2.25851   0.59415
C    -0.17038   3.67237   0.17721
O     0.11304   1.94011   1.76976
C     0.08960   1.64780  -1.89884
C     0.56920   0.89555  -3.14915
C    -0.00063  -0.51575  -3.39357
C     0.93099  -1.69005  -3.09032
C     1.53359  -1.67293  -1.67715
F     2.55644  -0.71708  -1.63454
C     2.19738  -2.96345  -1.38722
N     2.72609  -3.97279  -1.17751
H    -2.22732   0.84100   4.83321
H    -1.13972  -0.59544   4.90594
H    -0.46112   1.02684   4.52239
H    -4.75775   1.13306   1.29942
H    -4.81418   0.64789  -0.43019
H    -5.49654  -0.44426   0.83169
H    -0.31094  -3.47501  -0.36906
H     2.79509   1.46499   1.66279
H     2.33810  -0.17489   1.16373
H     3.86601   0.57184   0.55537
H    -1.01265   3.72290  -0.52551
H    -0.39296   4.26576   1.07269
H     0.71307   4.08692  -0.33351
H    -1.00911   1.64575  -1.88426
H     0.40290   2.68988  -2.02726
H     1.66726   0.88256  -3.19442
H     0.25050   1.53187  -3.98943
H    -0.94350  -0.63958  -2.83676
H    -0.26805  -0.61477  -4.45677
H     1.78343  -1.71915  -3.78775
H     0.38207  -2.63756  -3.20615
