49
Generated by autodE on: 2022-06-02. E = -1397.853539 Ha. Imaginary frequency = -295.7 cm-1
C     0.70206   1.70356   4.11663
O    -0.22199   0.98917   3.28756
C     0.14127  -0.23909   2.90953
O     1.14363  -0.80249   3.32033
C    -0.76264  -0.83645   1.92111
C    -2.08423  -0.33823   1.50974
O    -2.63843   0.65493   1.94674
O    -2.61990  -1.12049   0.55529
C    -3.91557  -0.76091   0.06349
N    -0.40238  -2.03117   1.46061
C    -0.00098  -2.73138   0.59166
C     0.46855  -1.20392  -0.98518
C     0.51077  -0.04590  -0.55987
C     0.79858   1.38919  -0.58575
C     2.05223   1.69762   0.27109
C     2.74119   3.01161   0.04725
O     2.45559   0.88420   1.07957
C    -0.37740   2.21367   0.01020
C    -1.68837   2.16242  -0.71665
O    -0.20439   2.88911   1.00561
C     0.99564   1.78442  -2.08422
C     2.06612   0.97902  -2.84576
C     1.55700  -0.15877  -3.75863
C     1.53354  -1.59315  -3.22115
C     0.41600  -1.98464  -2.24190
F     0.53603  -3.36075  -2.02206
C    -0.94124  -1.77037  -2.80257
N    -2.00946  -1.57695  -3.20945
H     0.83053   1.19661   5.08402
H     1.67707   1.79030   3.61619
H     0.26336   2.69701   4.26514
H    -3.90644   0.25230  -0.36027
H    -4.66230  -0.81384   0.86951
H    -4.14993  -1.49103  -0.71983
H     0.12056  -3.77709   0.31080
H     3.38703   3.23604   0.90602
H     2.02789   3.82792  -0.12618
H     3.37065   2.92326  -0.85449
H    -1.87940   1.17147  -1.15159
H    -2.49579   2.45185  -0.03434
H    -1.64700   2.88765  -1.54661
H     0.02914   1.66388  -2.59184
H     1.22936   2.85821  -2.11255
H     2.83251   0.59126  -2.15404
H     2.59160   1.69496  -3.49492
H     0.56335   0.10519  -4.16005
H     2.22376  -0.19870  -4.63349
H     1.43754  -2.29092  -4.06742
H     2.47579  -1.82828  -2.70231
