35
Generated by autodE on: 2022-05-30. E = -1119.294823 Ha
C    -4.81450   0.26620  -0.39190
N    -3.47935  -0.17416  -0.03174
C    -2.43362   0.65110  -0.10358
O    -2.49543   1.83726  -0.43327
C    -1.07037   0.06385   0.24426
C    -0.91585  -1.45066   0.60304
O    -1.65610  -2.37462   0.39277
O     0.26419  -1.55527   1.25038
C     0.79236  -0.13764   1.26730
C     1.76434  -0.04772   2.34950
N     2.48853   0.03453   3.24819
C     1.18537   0.14709  -0.18807
C     2.53890   0.07111  -0.77636
O     2.76175   0.13800  -1.96863
O     3.47108  -0.08539   0.15759
C     4.83516  -0.18395  -0.28481
C     0.00748   0.27165  -0.82766
C    -0.36434   0.37298  -2.27384
C     0.10493   1.56204  -3.04328
O    -1.11430  -0.48285  -2.71225
N    -0.39229   0.67413   1.41406
C    -1.10699   0.58622   2.69090
H    -5.09632   1.15802   0.18659
H    -4.87471   0.51916  -1.46265
H    -5.52371  -0.54100  -0.17510
H    -3.30726  -1.15989   0.15701
H     5.12687   0.73307  -0.81591
H     4.95485  -1.05100  -0.94960
H     5.43434  -0.30966   0.62357
H    -0.44886   2.43304  -2.65002
H    -0.11839   1.43614  -4.11094
H     1.17440   1.74563  -2.87628
H    -1.39007  -0.44114   2.97678
H    -0.47097   1.01143   3.47815
H    -2.01381   1.19989   2.61854
