15
Generated by autodE on: 2022-05-30. E = -458.066962 Ha
C     3.54932   1.06069  -0.17125
O     2.13458   0.88718  -0.37702
C     1.53188  -0.02007   0.38488
O     2.07578  -0.70285   1.22778
C     0.11295  -0.10714   0.09181
C    -1.08014  -0.22695  -0.10559
C    -2.51267  -0.36778  -0.35383
C    -3.41153   0.49334   0.47899
O    -2.90346  -1.15402  -1.20096
H     3.74644   1.37556   0.86323
H     3.85847   1.84116  -0.87500
H     4.08123   0.12173  -0.38036
H    -3.24439   0.27668   1.54706
H    -3.15664   1.55429   0.32079
H    -4.45969   0.30748   0.21029
