35
Generated by autodE on: 2022-05-30. E = -1119.238178 Ha. Imaginary frequency = -355.9 cm-1
C    -4.58158   0.95551  -0.86896
N    -3.45373   0.20977  -0.34517
C    -2.47176   0.82406   0.33368
O    -2.48472   2.02285   0.63230
C    -1.31706  -0.05304   0.66781
C    -1.20493  -1.48316   0.39263
O    -1.95555  -2.26559  -0.14097
O     0.02826  -1.85744   0.90844
C     0.68588  -0.69312   1.25004
C     1.76564  -0.86487   2.18064
N     2.66473  -1.03417   2.89383
C     1.31730  -0.15208  -0.56322
C     2.78874  -0.06825  -0.59790
O     3.48987  -0.67034  -1.38123
O     3.23420   0.75222   0.35008
C     4.65950   0.86102   0.50546
C     0.30297   0.00603  -1.28813
C    -0.70696   0.21739  -2.29117
C    -1.03250   1.64972  -2.61688
O    -1.26662  -0.73994  -2.82245
N    -0.26513   0.29510   1.43607
C     0.10577   1.64189   1.86528
H    -5.09826   1.49891  -0.06395
H    -4.25502   1.68962  -1.62338
H    -5.28258   0.25278  -1.33425
H    -3.33599  -0.77188  -0.59279
H     4.81639   1.55859   1.33541
H     5.11542   1.25065  -0.41529
H     5.08645  -0.12294   0.74567
H    -1.23438   2.22553  -1.70113
H    -1.89937   1.68420  -3.29028
H    -0.16103   2.11363  -3.10813
H     0.95675   1.56168   2.55137
H     0.38618   2.23944   0.98624
H    -0.74657   2.10315   2.36993
