45
Generated by autodE on: 2022-10-07. E = -1428.966603 Ha
C     3.70988   2.16660   0.58552
N     2.73983   1.12146   0.84288
C     2.61758   0.07763   0.00576
O     3.43690  -0.21284  -0.86805
C     1.36011  -0.79829   0.24886
C     1.85132  -2.03462   1.02549
C     1.42929  -2.17999   2.45952
O     2.69890  -2.74589   0.50898
O     0.39736  -0.06396   0.99789
C    -0.59503   0.50742   0.13409
C    -0.62753   2.01566   0.43236
O     0.01141   2.55187   1.31559
O    -1.55540   2.63328  -0.29692
C    -1.63931   4.05673  -0.16028
C    -1.96776  -0.07239   0.50011
C    -2.16443  -0.63367   1.76829
C    -3.41133  -1.14954   2.13231
C    -4.48018  -1.10613   1.23324
C    -4.29292  -0.53703  -0.03035
C    -3.04658  -0.02191  -0.39370
C    -0.15192   0.15874  -1.30994
C     0.67996   1.22100  -2.07034
O     0.99259   2.28376  -1.47097
O     0.98209   0.91839  -3.24906
C     0.65544  -1.12950  -1.06880
C    -0.28299  -2.35962  -0.95775
O    -0.20421  -3.06038   0.08547
O    -1.05379  -2.55708  -1.92703
H     4.70239   1.73151   0.40560
H     3.42449   2.75961  -0.30019
H     3.76643   2.83257   1.45606
H     1.88918   1.37966   1.34289
H     1.85791  -3.10341   2.87095
H     1.80471  -1.31480   3.03070
H     0.33704  -2.19015   2.55115
H    -2.45901   4.37738  -0.81349
H    -0.69431   4.51816  -0.48286
H    -1.85127   4.33702   0.88125
H    -1.33290  -0.67037   2.47082
H    -3.54524  -1.58852   3.12396
H    -5.45455  -1.51237   1.51492
H    -5.12138  -0.49507  -0.74149
H    -2.91976   0.42638  -1.37955
H    -1.00853  -0.08159  -1.94745
H     1.36829  -1.30244  -1.88401
