35
Generated by autodE on: 2022-10-07. E = -973.823693 Ha
C     4.17927  -0.32991  -1.96567
N     3.40174  -0.56139  -0.76767
C     2.10919  -0.19121  -0.68373
O     1.47679   0.27282  -1.65803
C     1.48546  -0.30492   0.63444
O     0.18686   0.07902   0.76554
C    -0.79479   0.10591  -0.07317
C    -0.76480  -0.69176  -1.34861
O    -1.29944  -0.34206  -2.37792
O    -0.21088  -1.88172  -1.13863
C    -0.04001  -2.72449  -2.28961
C    -1.96698   0.83750   0.34910
C    -3.20592   0.70924  -0.32361
C    -4.32012   1.41065   0.12701
C    -4.22580   2.24726   1.24480
C    -3.00356   2.38412   1.91707
C    -1.88262   1.69251   1.47595
C     2.16140  -0.47274   1.88836
C     1.35611  -0.30243   3.15663
O     3.37190  -0.77859   1.94777
H     4.39869   0.74053  -2.12336
H     3.63940  -0.69522  -2.85170
H     5.13021  -0.87153  -1.88386
H     3.85185  -0.78142   0.12497
H     0.57006  -2.20528  -3.04212
H    -1.01635  -2.98910  -2.71931
H     0.47609  -3.62157  -1.93046
H    -3.29378   0.05563  -1.18955
H    -5.27238   1.30091  -0.39569
H    -5.10368   2.79731   1.59089
H    -2.92667   3.04333   2.78412
H    -0.92745   1.81318   1.98735
H     2.02692  -0.41466   4.01803
H     0.55470  -1.05554   3.21599
H     0.87336   0.68720   3.18859
