45
Generated by autodE on: 2022-10-07. E = -1428.868682 Ha. Imaginary frequency = -268.3 cm-1
C     4.42270   1.56839   0.09737
N     3.30807   0.64647   0.02659
C     2.31930   0.68567   0.92631
O     2.25242   1.50846   1.84985
C     1.31498  -0.43880   0.84893
C     1.78053  -1.76439   1.29874
C     0.75072  -2.78567   1.70771
O     2.98410  -2.02443   1.31775
O     0.01793  -0.25994   1.09212
C    -0.95980   0.45660   0.57282
C    -0.76506   1.86140   0.11268
O    -1.67597   2.66296  -0.00131
O     0.49705   2.14416  -0.16674
C     0.80225   3.46939  -0.61190
C    -2.29759  -0.02437   0.95213
C    -2.43150  -0.98097   1.98121
C    -3.68359  -1.47952   2.33494
C    -4.83310  -1.03643   1.67227
C    -4.71320  -0.08735   0.65272
C    -3.46446   0.41949   0.29399
C    -0.48074  -0.54137  -1.65914
C    -1.24225   0.50868  -2.44925
O    -2.44790   0.23429  -2.69839
O    -0.62782   1.54238  -2.82644
C     0.88868  -0.58233  -1.60666
C     1.72709  -1.83936  -1.58558
O     2.97818  -1.65569  -1.70852
O     1.16209  -2.95497  -1.47146
H     5.06615   1.41592  -0.77848
H     4.07236   2.61249   0.10067
H     5.02502   1.41266   1.00870
H     3.30944  -0.12158  -0.66273
H     1.23828  -3.76684   1.77060
H    -0.09026  -2.82341   1.00502
H     0.34875  -2.52249   2.70020
H     1.87913   3.47385  -0.81536
H     0.23857   3.69557  -1.52639
H     0.55868   4.20089   0.17171
H    -1.54675  -1.32044   2.51638
H    -3.76203  -2.21381   3.14008
H    -5.81504  -1.42595   1.95068
H    -5.60276   0.26217   0.12335
H    -3.39030   1.13764  -0.51616
H    -1.04400  -1.45006  -1.42874
H     1.42277   0.32002  -1.90955
