53
Generated by autodE on: 2022-06-22. E = -1024.166688 Ha
C     1.77384   1.82307   1.86743
C     0.75822   1.38272   0.82225
C    -0.36967   0.46062   1.33559
C     0.09601  -0.62914   2.30202
C    -0.94624  -0.09620   0.00128
C    -1.76552  -1.37153   0.20966
C    -1.31778  -2.62192  -0.23019
C    -2.07972  -3.77487  -0.00287
C    -3.29824  -3.69280   0.67417
C    -3.75401  -2.44519   1.11869
C    -2.99720  -1.29711   0.88143
C    -1.85694   0.90972  -0.74630
C    -2.35978   2.09118  -0.18708
C    -3.17155   2.95456  -0.93419
C    -3.50198   2.64856  -2.25509
C    -3.01889   1.46323  -2.82241
C    -2.21118   0.60786  -2.07323
N     0.28871  -0.35881  -0.74228
C     1.31453   0.66078  -0.46395
C     1.41311   1.66941  -1.62366
C     2.68257  -0.00744  -0.24145
C     3.86847   0.74858  -0.24933
C     5.11120   0.15043  -0.02425
C     5.20119  -1.22568   0.20780
C     4.03279  -1.99197   0.20836
C     2.79151  -1.38746  -0.01552
H     2.48030   2.55602   1.44975
H     2.36294   0.98542   2.26627
H     1.25714   2.30718   2.71212
H     0.26652   2.29426   0.45249
H    -1.12858   1.05665   1.85998
H     0.84095  -1.29718   1.84875
H    -0.75000  -1.24527   2.63839
H     0.54785  -0.17797   3.19765
H    -0.36159  -2.68943  -0.74887
H    -1.71442  -4.74212  -0.35756
H    -3.89194  -4.59229   0.85435
H    -4.70595  -2.36741   1.64999
H    -3.36470  -0.32724   1.22496
H    -2.12452   2.35900   0.84290
H    -3.54539   3.87262  -0.47389
H    -4.13390   3.32284  -2.83801
H    -3.27633   1.20276  -3.85210
H    -1.85308  -0.31872  -2.52967
H     0.13082  -0.48242  -1.73897
H     2.08482   2.50589  -1.38225
H     1.79184   1.18108  -2.53605
H     0.41978   2.08822  -1.83960
H     3.82964   1.82414  -0.42581
H     6.01502   0.76511  -0.03262
H     6.17251  -1.69514   0.38202
H     4.08474  -3.07008   0.38199
H     1.88198  -1.98689  -0.02271
