12
Generated by autodE on: 2022-06-22. E = -157.299004 Ha
C     1.60442  -0.49731  -0.04369
C     0.64492   0.62576   0.21440
C    -0.69437   0.59625   0.12550
C    -1.56130  -0.56744  -0.25248
H     1.10421  -1.43261  -0.33296
H     2.31467  -0.22935  -0.84588
H     2.21769  -0.70247   0.85156
H     1.10817   1.57616   0.50868
H    -1.23376   1.52433   0.35393
H    -2.17682  -0.32645  -1.13719
H    -2.27204  -0.80622   0.55845
H    -0.98663  -1.47722  -0.47761
