53
Generated by autodE on: 2022-06-22. E = -1024.093928 Ha. Imaginary frequency = -405.8 cm-1
C     1.88563  -0.26104   2.17230
C     1.05827   0.83416   1.55013
C    -0.33258   0.84947   1.67945
C    -1.07525  -0.05199   2.62601
C    -1.00452  -0.15612  -0.42038
C    -1.70703  -1.39749  -0.03948
C    -1.00300  -2.51487   0.47335
C    -1.65958  -3.69272   0.82827
C    -3.04952  -3.79664   0.71095
C    -3.76667  -2.70105   0.21958
C    -3.10986  -1.52833  -0.15443
C    -1.79471   0.93259  -1.05389
C    -2.79567   1.62957  -0.34944
C    -3.54959   2.62665  -0.96939
C    -3.32460   2.95386  -2.31201
C    -2.34594   2.25952  -3.02925
C    -1.59791   1.25520  -2.41048
N     0.30608  -0.33190  -0.81568
C     1.32678   0.57122  -0.65754
C     1.09410   2.01301  -1.02564
C     2.69026   0.02680  -0.83811
C     3.81549   0.81717  -0.51201
C     5.10925   0.30329  -0.58162
C     5.32967  -1.01837  -0.98645
C     4.23173  -1.81287  -1.32648
C     2.93472  -1.29938  -1.25963
H     2.95354  -0.14541   1.94054
H     1.57540  -1.25663   1.81346
H     1.78537  -0.27691   3.27346
H     1.56113   1.79468   1.41633
H    -0.83501   1.79076   1.44314
H    -0.72253  -1.09236   2.58729
H    -2.15662  -0.06577   2.42294
H    -0.94210   0.28864   3.67175
H     0.07711  -2.46811   0.62796
H    -1.07756  -4.53168   1.21796
H    -3.56509  -4.71501   1.00074
H    -4.85286  -2.76133   0.11296
H    -3.69735  -0.70366  -0.55632
H    -2.97741   1.39059   0.69938
H    -4.31537   3.15738  -0.39805
H    -3.91125   3.73900  -2.79478
H    -2.16754   2.49460  -4.08170
H    -0.84701   0.70740  -2.98218
H     0.62018  -1.28690  -0.67553
H     1.01039   2.12526  -2.12097
H     1.92958   2.63824  -0.69035
H     0.17677   2.41090  -0.58045
H     3.67606   1.84300  -0.17009
H     5.95465   0.94135  -0.31230
H     6.34401  -1.41976  -1.04273
H     4.38201  -2.84223  -1.66137
H     2.11371  -1.94702  -1.57338
