47
Generated by autodE on: 2022-06-01. E = -1289.875819 Ha
C    -0.88367   4.34029   2.01797
N    -1.04921   3.39943   0.92446
C    -0.98581   2.07449   1.10686
O    -0.88542   1.53412   2.20632
C    -0.98098   1.21248  -0.20494
C    -1.97222   1.73827  -1.14646
N    -2.75743   2.15213  -1.89301
N     0.36827   1.30685  -0.80187
C     1.16289   0.24229  -0.19380
C     2.23120  -0.21036  -1.21508
O     2.07957   0.02917  -2.41540
N     3.26100  -0.90387  -0.71800
C     4.27188  -1.49099  -1.57751
C     1.87535   0.73604   1.08605
O     2.27517  -0.06506   1.93961
N     2.07146   2.05616   1.15002
C     2.58417   2.70168   2.34153
C     0.18767  -0.92408   0.15029
C     0.00586  -1.98684  -0.98312
O    -0.89005  -1.32538  -1.88478
C    -1.94361  -1.11699  -0.94190
C    -2.10807  -2.52592  -0.36133
C    -3.28808  -3.04627   0.21342
N    -4.27210  -3.46230   0.68049
C    -0.87137  -3.07524  -0.37664
C    -0.36136  -4.34913   0.17442
C    -1.23299  -0.28053   0.15956
H    -1.34566   3.93461   2.92703
H    -1.37352   5.28720   1.75723
H     0.18151   4.53564   2.22369
H    -1.04577   3.76518  -0.02334
H     0.32806   1.11417  -1.80560
H     3.28526  -1.07638   0.28466
H     4.73104  -0.72511  -2.22033
H     5.04983  -1.94289  -0.95075
H     3.84029  -2.26933  -2.22734
H     1.61280   2.60805   0.42899
H     2.81582   3.74891   2.11255
H     3.49965   2.19950   2.68504
H     1.84386   2.66852   3.15805
H     0.47697  -1.39161   1.09625
H     0.91071  -2.32944  -1.49345
H    -2.82679  -0.66901  -1.40683
H     0.14301  -4.93338  -0.61327
H     0.40124  -4.13892   0.94450
H    -1.16093  -4.95515   0.62210
H    -1.74725  -0.35104   1.12103
