17
Generated by autodE on: 2022-06-01. E = -439.145382 Ha
C    -2.30391  -0.54210   0.66531
C    -0.95286  -0.38495   0.08827
C    -0.17332   0.70451  -0.09049
C    -0.45213   2.04588   0.23270
N    -0.67028   3.16323   0.49057
C     1.17809   0.15108  -0.63751
C     1.83442  -0.63562   0.51648
C     1.05676  -1.70911   0.68662
C    -0.05520  -1.56091  -0.37321
O     0.67229  -0.92578  -1.43926
H    -2.74464   0.42209   0.95444
H    -2.25190  -1.19418   1.55532
H    -2.97281  -1.04801  -0.05132
H     1.79971   0.84855  -1.20740
H     2.70673  -0.30803   1.08079
H     1.11116  -2.50296   1.43049
H    -0.57640  -2.46691  -0.70032
