30
Generated by autodE on: 2022-06-01. E = -850.651066 Ha
C     5.08075   0.45135   0.33695
N     3.81066  -0.19790   0.07504
C     2.64472   0.44491   0.25297
O     2.56947   1.61395   0.66759
C     1.39814  -0.29313  -0.06120
C     1.39425  -1.59097  -0.60263
N     1.45882  -2.66212  -1.06557
N     0.28783   0.44515   0.13456
C    -1.01720   0.29948   0.01521
C    -1.70685  -0.98468  -0.29104
O    -2.63209  -1.02388  -1.11669
N    -1.31304  -2.05710   0.41372
C    -1.79043  -3.39132   0.10197
C    -1.75745   1.57645   0.22935
O    -1.14002   2.57830   0.62700
N    -3.07492   1.56176  -0.01968
C    -3.88521   2.75567   0.11022
H     5.25265   1.29496  -0.35100
H     5.88532  -0.28163   0.20392
H     5.11986   0.83872   1.36649
H     3.81062  -1.14519  -0.28934
H     0.54518   1.41202   0.43574
H    -0.57239  -1.96119   1.10105
H    -2.88969  -3.42134   0.10507
H    -1.41049  -4.08767   0.85865
H    -1.43687  -3.71452  -0.89067
H    -3.45261   0.73480  -0.47986
H    -3.65631   3.49300  -0.67778
H    -3.71029   3.23495   1.08416
H    -4.94334   2.47710   0.03489
