34
Generated by autodE on: 2022-06-02. E = -3670.672994 Ha
C     2.91729  -0.16814  -3.24120
C     1.72525   0.56269  -2.72929
O     1.45386   1.71676  -2.98352
C     0.72689  -0.18541  -1.82882
O    -0.59953  -0.12401  -2.39017
C    -1.21293  -0.80628  -1.33256
C    -2.63371  -1.05461  -1.55143
N    -3.76649  -1.23752  -1.69991
O    -0.48598  -2.07704  -1.29721
C     0.80291  -1.71876  -1.59647
O     1.72085  -2.48286  -1.61552
C    -0.76751   0.00848  -0.08577
C     0.48467   0.37104  -0.40937
C     1.55296   1.08215   0.37226
F     1.60373   0.57732   1.64331
F     2.76916   0.75538  -0.19496
C     1.41253   2.59118   0.41222
C    -0.00150   3.11094   0.68214
C    -0.73790   2.53714   1.91437
C    -1.90779   1.60177   1.59272
C    -1.63530   0.17527   1.11545
Br   -0.95820  -0.98506   2.61331
H     3.56266   0.51716  -3.80427
H     3.46402  -0.62842  -2.40482
H     2.57846  -0.99410  -3.88921
H     1.75921   2.96794  -0.56093
H     2.12324   2.93674   1.18033
H    -0.61419   2.95005  -0.21962
H     0.08735   4.20215   0.78822
H    -1.16935   3.37574   2.48085
H    -0.03616   2.04317   2.60351
H    -2.56052   1.51362   2.47405
H    -2.52402   2.06223   0.80013
H    -2.60496  -0.28944   0.90686
