14
Generated by autodE on: 2022-06-02. E = -586.283458 Ha
C    -3.13117   0.60619  -0.23791
C    -1.79393   1.10171   0.24351
O    -1.63637   2.18006   0.81027
C    -0.66717   0.22128  -0.00251
O     0.59330   0.62850   0.41042
C     1.44230  -0.29015   0.09409
C     2.82301  -0.15886   0.40131
N     3.95372  -0.06595   0.64761
O     0.93378  -1.30967  -0.49591
C    -0.57572  -1.04091  -0.61303
O    -1.26949  -1.86084  -1.13713
H    -3.36920  -0.36822   0.21775
H    -3.90396   1.34072   0.02234
H    -3.11086   0.45509  -1.32936
