34
Generated by autodE on: 2022-06-02. E = -3670.597549 Ha. Imaginary frequency = -267.8 cm-1
C     3.10929  -0.09664  -3.17570
C     1.61571   0.03276  -3.16855
O     0.98232   0.71904  -3.95707
C     0.89208  -0.74491  -2.14752
O    -0.46251  -0.78965  -2.22552
C    -0.88148  -1.47625  -1.18265
C    -2.25217  -1.81573  -1.03854
N    -3.37808  -2.04644  -0.87163
O     0.08181  -2.22962  -0.66776
C     1.32537  -1.76682  -1.22702
O     2.37496  -2.23669  -0.88747
C    -0.59033   0.38255   0.22363
C     0.56522   0.66393  -0.10665
C     1.79170   1.46189   0.03923
F     2.89817   0.64841   0.08566
F     1.95773   2.24258  -1.08130
C     1.76179   2.32710   1.28850
C     0.49671   3.17558   1.49560
C    -0.65566   2.55234   2.32333
C    -1.87857   2.00517   1.57293
C    -1.79717   0.58294   1.01509
Br   -1.77412  -0.79199   2.48087
H     3.53263   0.61424  -3.89623
H     3.52339   0.07682  -2.17262
H     3.38048  -1.12638  -3.46326
H     2.65069   2.97254   1.20912
H     1.91928   1.65308   2.14415
H     0.12237   3.53030   0.52048
H     0.82554   4.07968   2.02806
H    -1.04181   3.34329   2.98338
H    -0.25759   1.77605   2.99864
H    -2.76312   2.04121   2.22660
H    -2.10541   2.65324   0.70824
H    -2.71279   0.33747   0.46481
