49
Generated by autodE on: 2022-06-04. E = -1389.991610 Ha
C    -2.42337   3.60178   0.57315
N    -1.93738   2.38654  -0.04818
C    -0.77584   1.82992   0.32159
O     0.01129   2.39670   1.08706
C    -0.42808   0.47474  -0.32608
C    -0.67167   0.63898  -1.90094
C    -0.10490  -0.54495  -2.65614
C    -0.93821  -1.55967  -2.40260
C    -1.99983  -0.98634  -1.48137
O    -2.08261   0.37011  -1.94280
C    -1.39080  -0.73491  -0.04053
C    -2.46316  -0.49240   1.04182
C    -3.75673  -1.24390   0.93519
O    -2.22492   0.24556   1.97831
C    -0.44180  -1.84472   0.50079
C    -0.80016  -3.19804   0.04914
N    -1.09058  -4.27649  -0.26339
N     0.90227  -1.47207   0.07619
C     1.94780  -2.24017   0.74509
C     0.99393  -0.01106   0.09048
C     2.02146   0.56554  -0.89964
O     1.98492   1.72285  -1.26130
O     2.92235  -0.31164  -1.31348
C     3.90184   0.16145  -2.25423
C     1.37646   0.43184   1.52975
O     0.77674   0.04882   2.51143
O     2.54267   1.07228   1.57107
C     3.01928   1.46517   2.86693
H    -1.68203   4.41015   0.48897
H    -2.63677   3.44316   1.64366
H    -3.34694   3.91290   0.06965
H    -2.54564   1.84858  -0.66100
H    -0.43948   1.63675  -2.27862
H     0.82153  -0.54583  -3.22788
H    -0.86503  -2.59998  -2.71310
H    -2.97696  -1.47378  -1.48941
H    -4.29761  -1.17876   1.88749
H    -4.37158  -0.78975   0.13980
H    -3.58696  -2.29512   0.65511
H    -0.51699  -1.87403   1.60461
H     2.93204  -1.85178   0.46382
H     1.85414  -2.21808   1.84680
H     1.89044  -3.28933   0.41840
H     3.40513   0.53057  -3.16251
H     4.49940   0.96752  -1.80591
H     4.53452  -0.70210  -2.48681
H     3.15589   0.58413   3.50966
H     2.30369   2.15696   3.33413
H     3.97855   1.96667   2.69646
