24
Generated by autodE on: 2022-06-04. E = -721.557579 Ha
C     2.91518  -2.34429   0.39835
O     1.93010  -1.32544   0.62366
C     0.95098  -1.22694  -0.28072
O     0.81127  -2.02195  -1.19265
C     0.07529  -0.05021  -0.03224
C     0.66393   1.27506   0.08494
O     0.06225   2.31312   0.34542
O     1.98645   1.26859  -0.16787
C     2.66627   2.52345  -0.06051
N    -1.27918  -0.23237  -0.01164
C    -1.78106  -1.62952  -0.07313
C    -2.18278   0.74513   0.07962
C    -3.56604   0.49964   0.13566
N    -4.72842   0.38818   0.18353
H     3.40799  -2.19272  -0.57315
H     3.64243  -2.24473   1.21233
H     2.45192  -3.34109   0.42168
H     3.71858   2.31441  -0.28606
H     2.57196   2.93232   0.95629
H     2.26170   3.24867  -0.78187
H    -2.83739  -1.64292   0.20530
H    -1.21253  -2.24509   0.63188
H    -1.65160  -2.01026  -1.09074
H    -1.82653   1.77159   0.12650
