49
Generated by autodE on: 2022-06-04. E = -1389.914659 Ha. Imaginary frequency = -222.6 cm-1
C    -0.61133   3.95055   1.00244
N    -0.95907   2.59207   0.63894
C    -0.34221   1.98119  -0.38189
O     0.44063   2.57323  -1.14036
C    -0.70021   0.54119  -0.66090
C    -0.81716   0.26779  -2.21289
C    -0.52487  -1.19002  -2.54180
C    -1.55894  -1.87715  -2.04546
C    -2.45666  -0.82693  -1.40621
O    -2.25638   0.28861  -2.30800
C    -1.75380  -0.25768  -0.14199
C    -2.38859  -0.23003   1.16371
C    -3.61577  -1.08022   1.37015
O    -1.93558   0.43929   2.11010
C    -0.25530  -2.06001   0.80828
C    -0.79995  -3.36515   0.73435
N    -1.32302  -4.40563   0.70189
N     0.81016  -1.70190   0.07527
C     1.49239  -2.73173  -0.73642
C     1.21658  -0.37503   0.14350
C     2.20451   0.12136  -0.87218
O     2.19920  -0.18695  -2.04905
O     3.08256   0.97478  -0.35578
C     3.94227   1.65508  -1.28223
C     1.32346   0.16410   1.55985
O     1.29918  -0.55091   2.54387
O     1.45820   1.47651   1.62880
C     1.51854   2.04817   2.94512
H     0.48048   4.09141   1.01901
H    -1.01739   4.16724   1.99826
H    -1.02993   4.67684   0.28696
H    -1.40018   1.98328   1.33419
H    -0.34840   1.03763  -2.82866
H     0.37345  -1.54870  -3.03299
H    -1.72515  -2.95267  -2.00667
H    -3.51605  -1.06849  -1.28812
H    -3.86408  -1.10876   2.43869
H    -4.46397  -0.64426   0.81626
H    -3.46804  -2.10211   0.98923
H    -0.50238  -1.49488   1.69891
H     2.10823  -2.26738  -1.50474
H     2.12020  -3.32459  -0.05549
H     0.75223  -3.38287  -1.21153
H     4.55367   2.33390  -0.67728
H     3.33812   2.22320  -2.00374
H     4.58012   0.93668  -1.81596
H     1.68102   3.12066   2.79909
H     2.34811   1.60837   3.51511
H     0.57049   1.86993   3.47213
