41
Generated by autodE on: 2022-06-01. E = -1620.357261 Ha
C     2.20646   1.21560   3.76234
N     1.37616   1.25068   2.57311
C     0.50583   0.26180   2.32420
O     0.32787  -0.70661   3.06192
N    -0.33458   0.42723   1.18513
O    -0.06914   1.58530   0.43292
N     0.78149   1.15017  -0.61453
C     2.00992   1.75264  -0.77941
O     2.80385   1.40480  -1.62993
O     2.17123   2.76796   0.06885
C     3.42276   3.47351  -0.01559
C     0.36261  -0.13798  -1.04793
Cl   -0.44648  -0.04130  -2.67036
C     1.48173  -1.23253  -1.05534
C     0.85419  -2.50484  -1.60330
C     0.06363  -2.95124  -0.62424
C     0.22389  -1.96288   0.52338
O     1.57467  -1.50365   0.34300
C    -0.56209  -0.65002   0.17968
C    -2.05017  -0.79299  -0.06265
C    -2.79645   0.29344  -0.55158
C    -4.17785   0.19237  -0.71145
C    -4.84171  -0.99383  -0.37867
C    -4.11256  -2.06985   0.12895
C    -2.72642  -1.96851   0.29011
H     1.59214   1.17776   4.67512
H     2.87446   0.33959   3.76306
H     2.81828   2.12543   3.78608
H     1.50995   1.99447   1.89372
H     4.25697   2.79522   0.21095
H     3.54909   3.90219  -1.01913
H     3.36246   4.26912   0.73508
H     2.43092  -0.89460  -1.47541
H     0.99852  -2.89522  -2.60893
H    -0.60074  -3.81294  -0.62145
H     0.05768  -2.32725   1.53658
H    -2.29628   1.22834  -0.80467
H    -4.73963   1.04583  -1.09805
H    -5.92363  -1.07350  -0.50763
H    -4.61999  -2.99553   0.40978
H    -2.18903  -2.81581   0.71504
