23
Generated by autodE on: 2022-06-01. E = -998.312656 Ha
Cl   -1.01979  -2.18036   1.08967
C    -1.20460  -0.76031   0.13275
C    -0.29278   0.11078  -0.34424
C     1.16024   0.18523  -0.26321
C     1.80995   1.42230  -0.46056
C     3.19873   1.52421  -0.36693
C     3.97145   0.39359  -0.08599
C     3.34128  -0.84222   0.10201
C     1.95403  -0.94854   0.01686
C    -1.19634   1.24346  -0.92494
C    -1.85047   1.96846   0.27173
C    -2.72968   1.09077   0.76387
C    -2.59452  -0.15098  -0.14927
O    -2.31301   0.47469  -1.40911
H     1.22368   2.31709  -0.67735
H     3.67969   2.49376  -0.51651
H     5.05883   0.47295  -0.01713
H     3.93706  -1.73312   0.31470
H     1.47981  -1.91940   0.15806
H    -0.75349   1.85966  -1.71366
H    -1.57228   2.95792   0.63270
H    -3.37309   1.15693   1.64032
H    -3.43555  -0.85077  -0.19621
