33
Generated by autodE on: 2022-07-27. E = -749.056003 Ha
C     1.28986  -1.14210   4.59921
C     1.28624  -0.27152   3.36542
O     1.96861   0.78963   3.34136
C     0.50877  -0.68394   2.25723
N     0.59358   0.12083   1.15783
C     0.04577   0.09370  -0.04523
C     0.50193   1.07527  -1.03790
C     1.78663   1.65691  -0.96124
C     2.19315   2.61258  -1.89103
C     1.33545   3.00292  -2.92532
C     0.06359   2.42778  -3.01905
C    -0.35079   1.47541  -2.08886
C    -0.98649  -0.90843  -0.37475
C    -0.90865  -1.62999  -1.58092
C    -1.88626  -2.57026  -1.90851
C    -2.96266  -2.79594  -1.04456
C    -3.05504  -2.07610   0.15161
C    -2.07372  -1.14349   0.48818
H     0.64138  -2.02399   4.50028
H     2.32027  -1.47387   4.80989
H     0.96172  -0.54741   5.46780
H    -0.09374  -1.58648   2.22717
H     1.24451   0.89540   1.35696
H     2.48829   1.34154  -0.18578
H     3.19404   3.04382  -1.81617
H     1.65923   3.74630  -3.65717
H    -0.61538   2.72792  -3.82054
H    -1.35166   1.04867  -2.16427
H    -0.07187  -1.45487  -2.25951
H    -1.80705  -3.12937  -2.84361
H    -3.72987  -3.52916  -1.30366
H    -3.89904  -2.23924   0.82570
H    -2.16083  -0.57975   1.41865
