59
Generated by autodE on: 2022-06-26. E = -1438.522260 Ha. Imaginary frequency = -447.0 cm-1
C     3.20297   2.61389   1.43336
O     3.46905   1.53921   0.52969
C     2.52166   0.55043   0.43080
C     2.07669   0.18594  -0.81973
O     2.55393   0.90172  -1.84036
C     2.10275   0.82478  -3.19849
C     1.17632  -1.00180  -1.01866
O     0.99172  -1.42724  -2.19090
C     0.64700  -1.62087   0.14656
C    -0.20130  -2.84657  -0.01401
C    -1.17333   0.78053  -0.29687
C    -0.92338   1.79883  -1.33216
C     0.14519   2.71547  -1.21362
C     0.37508   3.67844  -2.19036
C    -0.45355   3.75454  -3.31494
C    -1.52671   2.86839  -3.44067
C    -1.76488   1.90627  -2.46044
C    -2.17061  -0.28622  -0.51060
C    -2.19396  -1.02586  -1.70790
C    -3.17400  -1.99314  -1.92244
C    -4.15619  -2.23012  -0.95569
C    -4.14971  -1.49208   0.23203
C    -3.16672  -0.52777   0.45552
N    -0.63926   0.98477   0.90457
C    -0.47244   0.09536   1.96062
C    -0.10477   0.81719   3.20998
C    -0.30410   0.13691   4.53365
O     0.36755   1.95109   3.14320
C     0.97547  -1.16197   1.46680
C     0.90453  -2.19872   2.57330
C     2.14424  -0.21162   1.60523
O     2.71711  -0.06011   2.69126
H     2.21315   3.05866   1.24424
H     3.25313   2.28563   2.48094
H     3.97740   3.37137   1.24956
H     2.47752  -0.08390  -3.68564
H     1.00954   0.85614  -3.26761
H     2.52916   1.71365  -3.68223
H    -0.40345  -3.04038  -1.07256
H    -1.16706  -2.74496   0.51034
H     0.29256  -3.74099   0.40495
H     0.83519   2.66404  -0.37434
H     1.21819   4.36319  -2.07983
H    -0.26593   4.50464  -4.08631
H    -2.19172   2.92966  -4.30464
H    -2.62543   1.24824  -2.56478
H    -1.41443  -0.86930  -2.45142
H    -3.16679  -2.56955  -2.85011
H    -4.92623  -2.98545  -1.12792
H    -4.92082  -1.65913   0.98728
H    -3.19560   0.06245   1.37243
H    -0.11231   1.85047   1.04986
H    -1.23676  -0.67213   2.06269
H     0.68419  -0.06114   4.97897
H    -0.86560  -0.80116   4.45688
H    -0.82889   0.83454   5.20465
H    -0.11121  -2.59660   2.69331
H     1.56653  -3.04232   2.32045
H     1.24218  -1.78691   3.52889
