39
Generated by autodE on: 2022-06-01. E = -1300.115471 Ha
C     3.35837  -1.24087  -2.21968
N     2.42351  -0.92039  -1.15936
C     1.98869   0.33124  -0.96515
O     2.39599   1.29884  -1.60488
C     0.82844   0.45635   0.07043
C     0.89893   1.72049   0.96850
O     0.48549   1.68908   2.10760
O     1.38895   2.79777   0.38705
C     1.39576   4.00660   1.16844
N     0.72915  -0.74261   0.88300
C     1.72977  -1.02159   1.90698
C    -0.62869  -1.15996   1.14849
C    -1.15065  -0.74706   2.48366
N    -1.51898  -0.48459   3.54990
C    -0.69304  -2.64319   1.12110
N    -0.70450  -3.80126   1.10215
C    -1.49213  -0.49392   0.01637
F    -2.57756   0.12847   0.56447
C    -1.88418  -1.42306  -1.17124
C    -2.76897  -0.59600  -2.08633
C    -1.94425   0.26217  -2.69852
C    -0.56042  -0.04188  -2.15148
O    -0.63106  -1.44567  -1.86474
C    -0.53397   0.52229  -0.69413
F    -1.04775   1.79549  -0.64564
H     3.71595  -2.26860  -2.08123
H     4.21710  -0.55533  -2.19228
H     2.88453  -1.15867  -3.21255
H     1.92814  -1.66552  -0.67795
H     1.84012   4.77390   0.52500
H     1.99792   3.86998   2.07734
H     0.36777   4.28251   1.44302
H     1.79594  -2.10766   2.07167
H     1.50575  -0.52483   2.86483
H     2.70827  -0.67209   1.55634
H    -2.22260  -2.42603  -0.89636
H    -3.85366  -0.67291  -2.14452
H    -2.17990   1.07158  -3.38780
H     0.29994   0.21301  -2.77511
