26
Generated by autodE on: 2022-07-27. E = -793.970111 Ha
C     2.84122  -1.05357  -2.80334
N     1.65963  -0.78108  -2.00489
C     1.74315  -0.14350  -0.82969
O     2.79132   0.30092  -0.35656
C     0.44250   0.04321  -0.08808
C     0.06200   1.44325   0.22053
O    -0.55269   1.79697   1.20785
O     0.54774   2.27507  -0.69976
C     0.35888   3.68052  -0.46583
N    -0.19367  -0.99824   0.43366
C     0.48905  -2.31389   0.48326
C    -1.49351  -0.97563   0.89853
C    -2.41754  -0.00548   0.46118
N    -3.20991   0.76283   0.08116
C    -1.97562  -1.99891   1.74328
N    -2.42458  -2.82043   2.44145
H     3.52732  -1.73532  -2.27567
H     2.53106  -1.51806  -3.74656
H     3.38521  -0.12240  -3.02225
H     0.75627  -1.12417  -2.31862
H     0.80659   4.18964  -1.32628
H     0.86353   3.98145   0.46337
H    -0.71334   3.91199  -0.39600
H     0.14330  -2.93251  -0.35450
H     0.22974  -2.80072   1.42986
H     1.57140  -2.16741   0.45086
