39
Generated by autodE on: 2022-06-01. E = -1300.016957 Ha. Imaginary frequency = -285.2 cm-1
C     3.64457  -0.90923  -2.21590
N     2.44566  -0.64866  -1.44258
C     2.47621   0.11934  -0.34772
O     3.48045   0.72361   0.04026
C     1.18423   0.24406   0.44683
C     0.98696   1.62266   0.96999
O     0.68147   1.89431   2.11372
O     1.23483   2.52863   0.02696
C     1.08718   3.90545   0.39905
N     0.73519  -0.85077   1.10499
C     1.44569  -2.14363   0.95027
C    -0.53767  -0.94956   1.64633
C    -1.22319   0.06019   2.38928
N    -1.92635   0.74837   3.01143
C    -1.03687  -2.25256   1.94426
N    -1.52150  -3.29206   2.14815
C    -1.73264  -0.40087  -0.31604
F    -2.89969  -0.17194   0.29516
C    -1.62237  -1.57161  -1.29936
C    -2.47963  -1.14777  -2.51316
C    -1.80163  -0.14792  -3.08841
C    -0.52814   0.03365  -2.23508
O    -0.29724  -1.32657  -1.81158
C    -0.96527   0.60187  -0.88304
F    -1.27564   1.89626  -0.73843
H     4.35631  -1.53610  -1.65276
H     3.36412  -1.43036  -3.13933
H     4.14910   0.03355  -2.47272
H     1.59458  -1.17345  -1.64267
H     1.31658   4.48559  -0.50172
H     1.78711   4.16234   1.20701
H     0.05644   4.10092   0.72715
H     1.04052  -2.71185   0.10360
H     1.32280  -2.71630   1.87519
H     2.51327  -1.95929   0.81092
H    -1.74057  -2.58581  -0.90555
H    -3.44625  -1.57688  -2.77287
H    -2.05983   0.45964  -3.95464
H     0.34775   0.47993  -2.71351
