39
Generated by autodE on: 2022-06-01. E = -1640.071307 Ha
C    -1.19415   3.37109  -1.82123
O    -0.98579   2.41821  -0.76505
C    -0.84345   1.14597  -1.12024
O    -0.88500   0.74916  -2.26450
C    -0.52046   0.26586   0.06713
C    -0.89200   0.89909   1.45965
C    -2.37785   1.22875   1.41336
C    -3.00964   0.05239   1.50385
C    -1.90531  -0.98751   1.61574
O    -0.88256  -0.26367   2.30807
C    -1.26229  -1.11771   0.18818
Cl   -2.50031  -1.56654  -1.01925
C    -0.04370  -2.09635   0.10314
C    -0.33089  -3.47490   0.49475
N    -0.58294  -4.55532   0.82478
N     1.04223  -1.44936   0.81264
C     1.01307  -0.21847  -0.00468
C     2.01973   0.84471   0.32003
C     2.27034   1.87560  -0.60043
C     3.15576   2.90521  -0.27774
C     3.79880   2.91872   0.96390
C     3.55392   1.89396   1.88135
C     2.66761   0.86164   1.56242
C     1.15622  -0.91549  -1.37185
O     1.76789  -0.62732  -2.35691
O     0.42653  -2.07043  -1.25967
H    -2.10826   3.12498  -2.37897
H    -1.29451   4.34470  -1.32948
H    -0.33155   3.37101  -2.50250
H    -0.19746   1.66416   1.81682
H    -2.79484   2.22196   1.26117
H    -4.07421  -0.16633   1.44369
H    -2.13357  -1.94353   2.09964
H     0.75360  -1.24478   1.77436
H     1.78625   1.87308  -1.57712
H     3.34357   3.70052  -1.00239
H     4.48992   3.72660   1.21484
H     4.05236   1.89518   2.85319
H     2.48385   0.07061   2.29056
