39
Generated by autodE on: 2022-06-01. E = -1640.027380 Ha. Imaginary frequency = -298.7 cm-1
C    -0.50775   3.28864  -2.05869
O    -0.62049   2.40151  -0.94110
C    -1.01004   1.13613  -1.20931
O    -1.29895   0.75738  -2.33267
C    -0.99254   0.32820  -0.00027
C    -0.92477   0.94061   1.41905
C    -2.38068   1.28461   1.77879
C    -2.98216   0.10476   1.97311
C    -1.88232  -0.94606   1.73967
O    -0.72641  -0.24685   2.21758
C    -1.56255  -0.93547   0.21795
Cl   -2.68862  -1.72324  -0.85609
C     0.17428  -2.20843   0.01549
C    -0.24192  -3.49472   0.45884
N    -0.66051  -4.50747   0.84746
N     1.11028  -1.45874   0.68144
C     1.49429  -0.44291  -0.12395
C     2.26421   0.71726   0.28286
C     2.55260   1.72993  -0.65639
C     3.23147   2.87989  -0.25921
C     3.63492   3.03891   1.07050
C     3.35634   2.03662   2.00685
C     2.67498   0.88434   1.62164
C     1.13709  -0.85347  -1.48243
O     1.37765  -0.39944  -2.57540
O     0.38147  -2.01835  -1.32628
H    -1.49235   3.46039  -2.51828
H     0.17692   2.87439  -2.81246
H    -0.10824   4.22845  -1.66015
H    -0.15134   1.69086   1.60350
H    -2.80065   2.28963   1.78603
H    -4.02470  -0.12017   2.19310
H    -1.99994  -1.93187   2.20164
H     1.06051  -1.36962   1.69779
H     2.23441   1.61147  -1.69061
H     3.44405   3.65931  -0.99394
H     4.16622   3.94231   1.37803
H     3.67083   2.15403   3.04596
H     2.46719   0.11712   2.36951
