31
Generated by autodE on: 2022-10-20. E = -876.248634 Ha
C    -0.57707   2.84443   2.55613
O    -0.33616   1.93657   1.47504
C    -1.29458   1.03248   1.21483
O    -2.32607   0.96910   1.86209
C    -0.94045   0.21147   0.05278
C    -1.52916  -0.91560  -0.45521
O    -2.46869  -1.76888  -0.08477
C    -2.90606  -1.86011   1.27944
C    -0.84752  -1.17906  -1.74221
C    -1.20619  -2.28256  -2.59146
N    -1.50517  -3.17969  -3.26457
N     0.08710  -0.34366  -2.03393
C     0.15882   0.59982  -0.91408
C     1.56404   0.59235  -0.32729
C     2.39232   1.71175  -0.45695
C     3.68305   1.70004   0.08177
C     4.15320   0.56652   0.75038
C     3.32734  -0.55642   0.87886
C     2.03796  -0.54287   0.34377
H     0.30281   3.49668   2.60190
H    -1.48252   3.43938   2.36681
H    -0.69325   2.29625   3.50233
H    -3.43578  -2.81740   1.35499
H    -3.57394  -1.02805   1.52842
H    -2.03642  -1.85407   1.95258
H    -0.03028   1.60506  -1.32554
H     2.02161   2.59942  -0.97513
H     4.32116   2.58106  -0.02019
H     5.16078   0.55701   1.17276
H     3.68888  -1.44548   1.40104
H     1.39240  -1.41827   0.45098
