17
Generated by autodE on: 2022-10-20. E = -456.186959 Ha
N     4.14547   1.96078   0.04575
C     3.39897   1.07292  -0.10599
C     2.61346  -0.03171  -0.47557
N     1.65553  -0.50080   0.14259
C     0.60647  -1.04443   0.62109
C    -0.74625  -0.61941   0.26989
C    -1.83573  -1.30027   0.84532
C    -3.14218  -0.93093   0.52543
C    -3.37634   0.11829  -0.36976
C    -2.29593   0.79986  -0.94483
C    -0.98800   0.43867  -0.62830
H     0.74450  -1.86758   1.33188
H    -1.64830  -2.12121   1.54138
H    -3.98202  -1.46454   0.97612
H    -4.39991   0.40698  -0.61914
H    -2.47646   1.62061  -1.64270
H    -0.14801   0.97599  -1.07442
