55
Generated by autodE on: 2022-06-22. E = -1095.790050 Ha
C    -1.04198  -2.96889  -1.23182
C    -0.12385  -2.01564  -1.44945
C     0.85665  -2.12596  -2.58784
C    -0.01461  -0.76253  -0.60781
C    -1.14590  -0.54475   0.40654
C    -2.42076  -0.05972  -0.21999
C    -3.66249  -0.24430   0.26153
C    -3.96459  -0.96910   1.54453
C    -4.85989   0.33140  -0.44305
C    -0.49717   0.43192   1.48238
C    -0.70368  -0.14335   2.83235
N    -0.78974  -0.62435   3.88548
C    -1.18804   1.81895   1.48064
O    -2.19634   2.02745   2.16056
N    -0.62271   2.71154   0.66606
C    -1.15081   4.04933   0.49313
N     0.90274   0.51135   1.11312
C     1.83789   0.93783   2.13678
C     1.29332  -0.61390   0.23210
C     1.58908  -1.89674   1.02026
C     2.48481  -0.15765  -0.61780
C     2.38410   1.02416  -1.37149
C     3.44399   1.47074  -2.16123
C     4.63854   0.74328  -2.21219
C     4.75604  -0.42789  -1.46207
C     3.68952  -0.87144  -0.67111
H    -1.09372  -3.84882  -1.88015
H    -1.77140  -2.91634  -0.42121
H     0.61374  -2.97420  -3.24419
H     1.88502  -2.26249  -2.21762
H     0.86746  -1.20236  -3.18978
H    -0.02998   0.09196  -1.30242
H    -1.33622  -1.48367   0.93806
H    -2.30119   0.52229  -1.14019
H    -4.20721  -0.23905   2.33652
H    -4.84694  -1.61979   1.42870
H    -3.12639  -1.57928   1.90805
H    -5.57522  -0.46397  -0.71656
H    -4.58024   0.87990  -1.35460
H    -5.40489   1.02174   0.22500
H     0.25578   2.42573   0.23810
H    -2.22200   4.01139   0.24434
H    -0.61251   4.54323  -0.32491
H    -1.03485   4.65131   1.40933
H     2.82439   1.10419   1.68134
H     1.50183   1.89092   2.57275
H     1.95531   0.21077   2.96258
H     0.72019  -2.19432   1.62360
H     1.82378  -2.73195   0.34685
H     2.43974  -1.75878   1.70184
H     1.46099   1.60562  -1.34741
H     3.33688   2.39133  -2.74012
H     5.47010   1.08984  -2.83039
H     5.68325  -1.00554  -1.48761
H     3.81027  -1.79099  -0.09974
