23
Generated by autodE on: 2022-06-22. E = -351.521384 Ha
C    -2.98912  -2.30947   0.16971
C    -2.31732  -1.13713   0.15760
C    -3.03950   0.18114   0.27077
C    -0.86119  -1.13201   0.03178
C    -0.07327  -0.02771   0.00687
C     1.36884  -0.07949  -0.12120
C     2.22451   0.97327  -0.15549
C     3.70480   0.75658  -0.29540
C     1.80381   2.41245  -0.06233
H    -4.07822  -2.34292   0.26254
H    -2.46144  -3.26468   0.08689
H    -4.12516   0.03427   0.35954
H    -2.69379   0.74968   1.15010
H    -2.84682   0.81644  -0.60973
H    -0.38409  -2.11623  -0.04871
H    -0.54171   0.95705   0.08632
H     1.80085  -1.08456  -0.19901
H     3.96478  -0.31006  -0.36208
H     4.09182   1.26773  -1.19529
H     4.24740   1.19572   0.56112
H     2.30103   2.90112   0.79417
H     0.72050   2.54989   0.04753
H     2.13117   2.96484  -0.96094
