32
Generated by autodE on: 2022-07-27. E = -744.226214 Ha
C    -3.90580   2.03059   2.80374
N    -2.78936   1.13438   2.59254
C    -1.97998   1.25802   1.50158
O    -2.08538   2.24585   0.74272
C    -1.00748   0.19920   1.28561
C    -1.02098  -0.99227   2.01443
N    -1.03615  -1.99374   2.62936
N    -0.03525   0.33297   0.25441
C     0.80398   1.54495   0.31101
C     0.14881  -0.61189  -0.64746
C    -0.85604  -1.69579  -0.81269
C     1.37069  -0.64739  -1.47624
C     1.26918  -0.79634  -2.87172
C     2.42000  -0.85306  -3.65769
C     3.68334  -0.79421  -3.06011
C     3.79201  -0.67154  -1.67112
C     2.64507  -0.59100  -0.88170
H    -4.37697   1.78963   3.76524
H    -3.57177   3.07898   2.83387
H    -4.67031   1.94689   2.01093
H    -2.74439   0.28585   3.14570
H     1.24917   1.74714  -0.66823
H     1.58936   1.41782   1.06732
H     0.15157   2.37610   0.59410
H    -0.80573  -2.10290  -1.83043
H    -1.86868  -1.32940  -0.58673
H    -0.64746  -2.52795  -0.11680
H     0.28571  -0.84430  -3.34295
H     2.32955  -0.94840  -4.74191
H     4.58341  -0.84905  -3.67664
H     4.77597  -0.64018  -1.19814
H     2.73711  -0.50583   0.20199
