32
Generated by autodE on: 2022-06-22. E = -744.226786 Ha
C     2.78706   2.54019   0.40461
N     2.31695   1.18280   0.58384
C     1.44401   0.61510  -0.30143
O     0.86048   1.31438  -1.15607
C     1.23701  -0.81647  -0.18184
C     2.02587  -1.63166   0.63114
N     2.69983  -2.30155   1.32364
N     0.23696  -1.42953  -0.98244
C     0.66374  -2.54045  -1.84727
C    -0.97243  -0.92130  -1.08579
C    -1.85620  -1.33389  -2.21708
C    -1.49841   0.00382  -0.06316
C    -1.32813  -0.27907   1.30601
C    -1.88385   0.55929   2.26943
C    -2.59607   1.70285   1.88525
C    -2.76596   1.99146   0.52911
C    -2.23001   1.14184  -0.44090
H     3.44801   2.65250  -0.47408
H     3.34685   2.84532   1.29843
H     1.93851   3.22713   0.27457
H     2.86133   0.57136   1.18289
H     1.49628  -3.05642  -1.35584
H     1.01099  -2.14377  -2.81272
H    -0.15579  -3.24968  -2.00597
H    -1.30859  -1.38321  -3.16898
H    -2.26964  -2.33755  -2.01513
H    -2.70321  -0.64636  -2.31756
H    -0.77387  -1.16675   1.61258
H    -1.76187   0.31963   3.32811
H    -3.02135   2.36339   2.64435
H    -3.31974   2.88126   0.22165
H    -2.35889   1.37745  -1.49847
