16
Generated by autodE on: 2022-10-21. E = -546.495983 Ha
C    -3.52111   0.22436   0.19262
N    -2.07866   0.24299   0.06040
C    -1.28489  -0.74153   0.52083
O    -1.67911  -1.75768   1.10995
C     0.16398  -0.57622   0.29815
C     1.07847  -1.54970   0.74571
N     1.87087  -2.33023   1.09963
O     0.58992   0.50207  -0.32867
C     1.79456   0.87094  -0.63824
C     1.93066   2.09478  -1.31475
N     2.08285   3.10651  -1.87747
H    -3.87656   1.13079   0.70620
H    -4.00912   0.16974  -0.79358
H    -3.81299  -0.65400   0.77954
H    -1.64800   1.02916  -0.41681
H     2.65282   0.24642  -0.37542
