21
Generated by autodE on: 2022-10-21. E = -2961.019892 Ha
C     2.78677  -0.18206  -0.30975
O     1.84444  -0.23598  -1.37922
C     0.54242  -0.00052  -1.14089
C    -0.20977   0.28890  -0.05344
Br    0.23029   0.40422   1.79134
C    -1.67135   0.23675  -0.48547
C    -2.00671  -1.26298  -0.75382
C    -1.13365  -1.58487  -2.00258
C    -0.42643  -0.22166  -2.29320
C    -1.54513   0.77044  -1.92634
H     3.77068  -0.36739  -0.76015
H     2.57884  -0.95646   0.44363
H     2.78645   0.80837   0.17019
H    -2.36746   0.75439   0.18615
H    -1.76311  -1.89020   0.11570
H    -3.07895  -1.38630  -0.96985
H    -0.40276  -2.38701  -1.82575
H    -1.75323  -1.87740  -2.86346
H     0.03743  -0.14033  -3.28463
H    -1.22359   1.82100  -1.96904
H    -2.45943   0.63072  -2.52381
