22
Generated by autodE on: 2022-07-27. E = -628.966021 Ha
C     3.11440   2.42630   0.45735
O     2.22911   1.57313  -0.28820
C     1.24283   0.97383   0.39476
O     1.07275   1.13565   1.58999
C     0.40120   0.10357  -0.44888
O     0.70249  -0.20944  -1.68863
N     1.69431   0.08220  -2.50051
C    -0.82063  -0.54441   0.03683
C    -1.57698  -0.01171   1.10224
C    -2.75019  -0.64102   1.51889
C    -3.19556  -1.80628   0.88802
C    -2.45537  -2.34059  -0.17314
C    -1.28212  -1.72045  -0.59529
H     3.84230   2.80537  -0.26835
H     3.62018   1.85258   1.24656
H     2.55101   3.25600   0.90669
H     2.31827   0.71236  -1.97347
H    -1.25044   0.90092   1.59643
H    -3.32450  -0.21048   2.34246
H    -4.11317  -2.29667   1.22078
H    -2.79083  -3.25348  -0.67073
H    -0.70542  -2.15166  -1.41457
