45
Generated by autodE on: 2022-06-21. E = -980.496275 Ha. Imaginary frequency = -189.8 cm-1
C     1.04092   2.74848   0.10347
O     0.29831   1.72943  -0.58422
C    -0.55752   0.99316   0.14750
O    -0.64520   1.10461   1.36151
C    -1.38447   0.09642  -0.66490
C    -2.65753  -0.46111  -0.21485
C    -3.30831  -0.02699   0.96102
C    -4.51916  -0.59754   1.35476
C    -5.11459  -1.60625   0.59216
C    -4.48117  -2.04473  -0.57695
C    -3.26934  -1.48668  -0.97415
O    -1.11507  -0.17420  -1.93793
N     0.04994  -0.15546  -2.56091
C     1.00265  -1.99844  -1.39308
C     0.83517  -1.80846  -0.04422
C    -0.23834  -2.54180   0.72259
C     1.77728  -1.03684   0.76107
C     2.70573  -0.16390   0.29120
C     3.61519   0.56702   1.14228
C     4.49955   1.52231   0.75384
C     4.67205   1.98930  -0.66271
C     5.37820   2.20966   1.75875
H     1.76969   3.12745  -0.62137
H     1.55478   2.33652   0.97925
H     0.36073   3.55457   0.41614
H    -2.86294   0.75928   1.56602
H    -5.00355  -0.24397   2.26805
H    -6.06170  -2.05049   0.90652
H    -4.93118  -2.83718  -1.17965
H    -2.77817  -1.85036  -1.87673
H     0.69039   0.39577  -1.97302
H     1.92283  -1.70532  -1.89996
H     0.33197  -2.66205  -1.94071
H    -1.00144  -2.96686   0.05669
H     0.21565  -3.37123   1.29413
H    -0.73559  -1.88572   1.45385
H     1.69621  -1.16648   1.84629
H     2.75795   0.01645  -0.78614
H     3.56333   0.32802   2.21106
H     4.46522   3.07189  -0.73110
H     5.72016   1.85786  -0.98449
H     4.02439   1.47197  -1.38171
H     6.44463   2.07309   1.50434
H     5.21251   1.83709   2.78015
H     5.20015   3.30007   1.75032
