40
Generated by autodE on: 2022-06-19. E = -956.354235 Ha
C     0.61914  -2.58524   1.78654
C     0.07212  -2.45379   0.57139
C    -0.87119  -3.46017  -0.02271
C     0.31674  -1.23854  -0.30778
C     1.47911  -0.37767   0.11477
C     2.88079  -0.83262   0.03300
O     3.19222  -1.89022  -0.48530
O     3.75325   0.01943   0.57465
C     5.13659  -0.35777   0.51637
N     1.15017   0.78682   0.56107
N    -0.19157   0.91711   0.47703
C    -0.80138   2.06557   0.93318
O    -0.22061   3.02497   1.40315
O    -2.12733   1.96137   0.79575
C    -2.90443   3.09666   1.19522
C    -0.85964  -0.21399  -0.23997
C    -1.35915   0.21039  -1.58642
C    -2.63668   0.21127  -2.00747
C    -2.98159   0.65066  -3.40448
C    -3.81746  -0.19268  -1.16843
H     0.40096  -3.45766   2.40921
H     1.29435  -1.83375   2.20585
H    -1.08285  -4.28445   0.67317
H    -0.45100  -3.88036  -0.95277
H    -1.82619  -2.98139  -0.30178
H     0.45498  -1.58056  -1.34500
H     5.46258  -0.46577  -0.52836
H     5.29962  -1.30580   1.04930
H     5.69032   0.45214   1.00479
H    -3.94802   2.82746   0.99568
H    -2.62326   3.98273   0.60797
H    -2.76399   3.30459   2.26572
H    -1.66835  -0.59069   0.39327
H    -0.57484   0.53761  -2.27900
H    -3.49648  -0.15849  -3.95136
H    -3.68367   1.50247  -3.37924
H    -2.09126   0.94812  -3.97741
H    -4.38621  -0.99272  -1.67228
H    -4.50987   0.66057  -1.06238
H    -3.55257  -0.54137  -0.16272
