23
Generated by autodE on: 2022-06-19. E = -351.521383 Ha
C    -3.40164   1.64255  -0.18090
C    -2.50446   0.64278  -0.03480
C    -2.94725  -0.77572   0.21851
C    -1.07344   0.92700  -0.12243
C    -0.07721   0.01452   0.00327
C     1.32903   0.34874  -0.09338
C     2.38027  -0.50272   0.01463
C     2.25527  -1.98002   0.25842
C     3.79131  -0.00098  -0.10810
H    -4.47773   1.45730  -0.12069
H    -3.07765   2.67159  -0.36472
H    -4.04313  -0.84923   0.26023
H    -2.58451  -1.45261  -0.57283
H    -2.53808  -1.15603   1.16926
H    -0.80342   1.97381  -0.30687
H    -0.33916  -1.03085   0.18729
H     1.55280   1.40721  -0.27361
H     2.78262  -2.25976   1.18760
H     1.21777  -2.32978   0.33563
H     2.74803  -2.54343  -0.55357
H     3.83307   1.08410  -0.28302
H     4.36910  -0.23049   0.80531
H     4.31696  -0.50914  -0.93655
