41
Generated by autodE on: 2022-05-30. E = -1131.625745 Ha
C    -1.92335   3.67711   0.93434
O    -1.68397   2.38180   0.36079
C    -0.58602   1.74119   0.75690
O     0.17990   2.18514   1.58905
C    -0.34303   0.44683  -0.05597
C    -1.61593  -0.37961  -0.17580
C    -1.89650  -1.11051  -1.33624
C    -3.01730  -1.94442  -1.39477
C    -3.86473  -2.06522  -0.29026
C    -3.58198  -1.34783   0.87697
C    -2.46561  -0.51104   0.93220
C     0.80636  -0.34735   0.62468
C     0.82682  -1.88315   0.35265
O     1.40422  -1.95929  -0.95566
C     2.63865  -1.29196  -0.62042
C     3.11618  -2.07431   0.59886
C     1.97350  -2.42679   1.18928
F     1.77141  -3.02587   2.35980
C     2.11724   0.08404  -0.10424
C     1.65446   1.02822  -1.23405
C     2.00445   2.44074  -0.93674
N     2.23418   3.56153  -0.73951
N     0.22317   0.81343  -1.36304
C    -0.49134   1.71091  -2.25205
H    -2.84376   4.04733   0.46912
H    -1.08331   4.35045   0.71256
H    -2.05173   3.59414   2.02288
H    -1.22439  -1.03699  -2.19055
H    -3.22541  -2.50526  -2.30916
H    -4.74022  -2.71716  -0.33616
H    -4.23383  -1.43897   1.74901
H    -2.25295   0.03742   1.85322
H     0.81150  -0.14553   1.69970
H    -0.12817  -2.41138   0.42170
H     3.31068  -1.24636  -1.48454
H     4.14330  -2.18920   0.93975
H     2.84819   0.56937   0.55043
H     2.15540   0.79446  -2.18924
H    -0.04618   1.64454  -3.25707
H    -0.46011   2.77063  -1.93391
H    -1.54385   1.40916  -2.32334
