13
Generated by autodE on: 2022-05-30. E = -406.788331 Ha
F    -1.11602  -1.54627   1.31844
C    -0.70140  -0.54803   0.54393
C    -0.97172   0.75461   0.59824
C    -0.06373   1.32842  -0.51625
C     1.40897   1.18930  -0.05503
C     1.66042  -0.12208  -0.08570
C     0.33655  -0.76148  -0.57363
O    -0.11831   0.25329  -1.48633
H    -1.58577   1.32256   1.29353
H    -0.36523   2.28760  -0.95088
H     2.04332   2.01308   0.27096
H     2.55317  -0.67367   0.20642
H     0.37920  -1.75927  -1.02401
