41
Generated by autodE on: 2022-05-30. E = -1131.519346 Ha. Imaginary frequency = -268.6 cm-1
C    -1.40956   1.63710   3.20202
O    -1.38251   0.92393   1.96342
C    -0.79867   1.55424   0.92339
O    -0.32484   2.67553   1.03280
C    -0.84179   0.75782  -0.30637
C    -1.96716  -0.20672  -0.45491
C    -1.78313  -1.52012  -0.92359
C    -2.86620  -2.39440  -1.03843
C    -4.15393  -1.97369  -0.69623
C    -4.35333  -0.66650  -0.23936
C    -3.27189   0.20548  -0.11828
C     1.36750  -0.15815   0.88788
C     1.26666  -1.62747   0.44999
O     1.44496  -1.48748  -0.97064
C     2.70627  -0.78363  -0.88649
C     3.53435  -1.77452  -0.03849
C     2.61816  -2.28413   0.78523
F     2.75653  -3.13063   1.80150
C     2.29617   0.38996   0.03496
C     1.09692   1.78088  -1.39634
C     1.48858   2.97121  -0.73159
N     2.02638   3.93912  -0.35797
N    -0.10829   1.13041  -1.39273
C    -0.40229   0.49553  -2.70001
H    -0.38836   1.85075   3.55146
H    -1.96062   2.58343   3.09748
H    -1.92133   0.98134   3.91643
H    -0.78956  -1.85949  -1.20752
H    -2.69922  -3.41194  -1.39938
H    -4.99963  -2.65930  -0.78755
H    -5.35696  -0.32283   0.02171
H    -3.44014   1.22438   0.23572
H     1.09537   0.19217   1.88040
H     0.36810  -2.19230   0.71819
H     3.09747  -0.53505  -1.87828
H     4.61203  -1.91864  -0.07180
H     2.96426   1.21910   0.25835
H     1.61667   1.69755  -2.35303
H    -0.08280   1.18046  -3.49186
H     0.13652  -0.45479  -2.79005
H    -1.47767   0.32477  -2.79386
