39
Generated by autodE on: 2022-05-30. E = -1138.721431 Ha
C    -5.74586   0.92904   1.08064
N    -4.56072   0.61137   0.30815
C    -3.48671  -0.00346   0.83222
O    -3.40604  -0.39888   2.00253
C    -2.32359  -0.21310  -0.06483
C    -1.75869   0.56904  -1.01311
C    -2.17844   1.82775  -1.50244
N    -2.50510   2.86257  -1.92521
C    -0.40766  -0.09111  -1.33317
O    -0.72409  -1.47021  -1.13052
C    -1.30948  -1.32259   0.17127
C    -0.14135  -0.67437   0.97012
O     0.85291  -1.63470   1.34479
N     1.82415  -1.73238   0.29566
C     1.93597  -0.35297  -0.18954
C     2.58504  -0.25009  -1.58059
C     3.36864  -1.42490  -2.07833
O     2.46523   0.78784  -2.20278
C     2.86832   0.46916   0.74918
O     2.80305   1.69804   0.77882
N     3.73934  -0.26530   1.44858
C     4.67379   0.31813   2.38966
C     0.50792   0.22912  -0.11357
H    -6.64632   0.72796   0.48387
H    -5.75640   1.98853   1.38560
H    -5.76502   0.30598   1.98294
H    -4.53225   0.89741  -0.66564
H     0.00294   0.09678  -2.32799
H    -1.67969  -2.27064   0.57239
H    -0.47999  -0.17425   1.88438
H     1.37651  -2.29074  -0.43802
H     4.07489  -1.76924  -1.30787
H     2.67931  -2.26195  -2.28346
H     3.89833  -1.15591  -3.00097
H     3.62748  -1.27492   1.38684
H     5.49743  -0.38576   2.56362
H     5.08075   1.25423   1.98300
H     4.19305   0.54378   3.35660
H     0.52768   1.29645   0.12115
