18
Generated by autodE on: 2022-05-30. E = -530.738615 Ha
C     3.14053   1.09874  -0.36797
N     1.70328   0.93488  -0.28882
C     1.15057  -0.23575   0.03566
O     1.80770  -1.25948   0.29287
C    -0.35106  -0.29742   0.08626
N    -0.76257  -1.51297   0.41720
O    -1.90966  -1.96915   0.56452
C    -1.26958   0.82896  -0.18859
C    -2.75066   0.61916  -0.09125
O    -0.80779   1.92929  -0.49464
H     3.36258   2.13139  -0.66211
H     3.61983   0.89433   0.60265
H     3.57871   0.41424  -1.11140
H     1.06196   1.70652  -0.47944
H     0.05346  -2.15159   0.56718
H    -3.02457   0.27640   0.91853
H    -3.25486   1.56509  -0.32707
H    -3.07295  -0.17353  -0.78382
