21
Generated by autodE on: 2022-05-30. E = -607.926252 Ha
C     3.74346  -0.22956  -0.58164
N     2.41869  -0.07145  -0.01244
C     1.36455   0.26609  -0.77383
O     1.44555   0.48388  -1.99085
C     0.04056   0.36989  -0.11822
C    -0.53963  -0.29059   0.90683
C    -0.00489  -1.25890   1.78098
N     0.42021  -2.05409   2.51978
C    -2.04118   0.14512   0.85440
C    -2.63204  -0.49051  -0.42142
C    -2.04842   0.16164  -1.43075
C    -1.11271   1.18341  -0.75220
O    -1.86508   1.49930   0.42948
H     4.44756  -0.46960   0.22359
H     4.07111   0.69676  -1.07899
H     3.76300  -1.04003  -1.32736
H     2.29038  -0.22415   0.98249
H    -2.60339   0.05732   1.78880
H    -3.32444  -1.33103  -0.43525
H    -2.12313   0.00636  -2.50598
H    -0.81962   2.07082  -1.32064
