49
Generated by autodE on: 2022-06-07. E = -1547.285360 Ha
C     4.61794   2.01348   2.14436
N     3.32290   1.58455   1.65684
C     3.13597   0.41337   1.03641
O     4.01023  -0.44206   0.85541
C     1.73920   0.16400   0.54451
N     0.89908   1.08966   0.31480
C    -0.41248   0.55420  -0.09800
C    -0.86863   1.26083  -1.37818
C    -1.90419   0.73395  -2.16546
C    -2.30975   1.37785  -3.33589
C    -1.69323   2.56668  -3.73656
C    -0.67608   3.10918  -2.94739
C    -0.27057   2.46404  -1.77610
C    -1.36152   0.90422   1.07997
C    -0.88148   0.85393   2.39969
C    -1.70695   1.17522   3.47775
C    -3.03385   1.55668   3.26049
C    -3.52157   1.61232   1.95350
C    -2.69162   1.29479   0.87429
C    -0.15685  -1.01668  -0.32015
C    -1.20116  -1.92840   0.34344
F    -1.22012  -1.84729   1.68135
F    -1.02573  -3.22580   0.05156
F    -2.44457  -1.61279  -0.08584
C     0.07000  -1.54644  -1.81721
C     0.99690  -0.59276  -2.56574
C     2.21598  -0.81035  -2.05825
C     2.01828  -1.88832  -1.00616
O     0.94249  -2.65070  -1.55616
C     1.29494  -1.23265   0.21762
F     1.38893  -2.06776   1.31685
H     4.47916   2.74205   2.95299
H     5.17332   1.14812   2.53030
H     5.21945   2.48127   1.34692
H     2.53386   2.22401   1.69312
H    -2.40221  -0.18858  -1.87207
H    -3.11245   0.94452  -3.93687
H    -2.00629   3.06788  -4.65536
H    -0.18837   4.04064  -3.24453
H     0.52854   2.89104  -1.17283
H     0.14387   0.54586   2.60054
H    -1.30772   1.12559   4.49346
H    -3.68074   1.81096   4.10335
H    -4.55536   1.91059   1.76412
H    -3.09818   1.35710  -0.13335
H    -0.83975  -1.87362  -2.32725
H     0.68822   0.12620  -3.32022
H     3.15215  -0.29359  -2.26444
H     2.87019  -2.50971  -0.71586
