49
Generated by autodE on: 2022-06-07. E = -1547.187466 Ha. Imaginary frequency = -191.5 cm-1
C     4.87885   1.47967   2.10372
N     3.58646   0.91014   1.77204
C     2.85526   1.35354   0.74019
O     3.19774   2.24784  -0.04033
C     1.57399   0.61300   0.53673
N     0.46085   1.10989   0.44583
C    -0.77827   1.28505   0.13215
C    -1.04404   1.57445  -1.29752
C    -2.15203   1.00889  -1.95284
C    -2.32310   1.19745  -3.32467
C    -1.39946   1.95245  -4.05599
C    -0.29726   2.51950  -3.40753
C    -0.11804   2.33159  -2.03759
C    -1.80375   1.27319   1.18903
C    -1.51326   0.70685   2.44654
C    -2.47133   0.70207   3.45661
C    -3.73314   1.26776   3.23500
C    -4.02498   1.84557   1.99604
C    -3.06912   1.85274   0.97909
C     0.30365  -1.95258  -0.24679
C    -0.94086  -2.35254   0.40217
F    -1.23582  -3.67008   0.20248
F    -2.04656  -1.69471  -0.05953
F    -0.91653  -2.16605   1.73859
C     0.64498  -2.25520  -1.71862
C     0.98556  -0.92762  -2.41569
C     2.15839  -0.54983  -1.89477
C     2.51037  -1.65886  -0.88885
O     1.97756  -2.81559  -1.56120
C     1.49291  -1.53010   0.28846
F     1.89375  -1.73367   1.56767
H     4.83374   2.57675   2.05694
H     5.66230   1.13726   1.40752
H     5.15242   1.17597   3.12139
H     3.25894   0.08333   2.26447
H    -2.85356   0.38657  -1.39742
H    -3.17870   0.74161  -3.82801
H    -1.53832   2.09723  -5.12979
H     0.42847   3.10913  -3.97212
H     0.75207   2.75705  -1.53382
H    -0.53571   0.25660   2.62298
H    -2.23492   0.25155   4.42322
H    -4.48365   1.26235   4.02876
H    -5.00198   2.30105   1.81955
H    -3.30334   2.32412   0.02469
H    -0.03368  -2.94275  -2.23481
H     0.33511  -0.39643  -3.10898
H     2.72457   0.36676  -2.05039
H     3.55573  -1.78250  -0.58593
