39
Generated by autodE on: 2022-06-12. E = -1554.890014 Ha
F    -1.29606   2.80397   0.18212
C    -2.12848   1.81236   0.54451
F    -2.94299   2.30814   1.48927
F    -2.88686   1.52559  -0.52720
C    -1.37131   0.56128   1.04791
C    -2.41359  -0.50350   1.41313
C    -2.76606  -1.49488   0.48820
C    -3.73567  -2.44984   0.80468
C    -4.36747  -2.42121   2.05069
C    -4.02397  -1.43115   2.97621
C    -3.05360  -0.47697   2.66075
C    -0.45850   0.12306  -0.00776
C     0.55631  -0.07502  -0.63295
C     1.98978  -0.15025  -0.90416
C     2.42918  -1.63564  -0.92054
F     1.74376  -2.35170  -1.82204
F     3.73185  -1.76316  -1.20638
F     2.22280  -2.20257   0.27626
C     2.30599   0.51491  -2.26473
F     3.62339   0.57799  -2.49420
F     1.74442  -0.13981  -3.29047
F     1.83090   1.76831  -2.28507
C     2.73021   0.63066   0.23953
C     2.09424   0.56439   1.64136
C     0.93228   1.55236   1.94565
C    -0.44765   0.94045   2.26376
H    -2.27677  -1.52353  -0.48750
H    -3.99521  -3.21907   0.07372
H    -5.12455  -3.16809   2.30060
H    -4.51277  -1.39968   3.95267
H    -2.80213   0.28979   3.39375
H     2.78721   1.68334  -0.07147
H     3.76376   0.25781   0.27550
H     2.91499   0.78570   2.34024
H     1.78683  -0.46627   1.86918
H     1.21237   2.12789   2.84104
H     0.84253   2.29402   1.13880
H    -0.30497   0.01879   2.84545
H    -1.01318   1.63053   2.90594
