61
Generated by autodE on: 2022-06-12. E = -2163.793153 Ha. Imaginary frequency = -282.8 cm-1
C   -10.84925   0.86000  -0.99410
C   -10.61098  -0.55242  -0.52817
O   -11.43011  -1.15409   0.14403
C    -9.31171  -1.19775  -0.95694
C    -8.85043  -2.55869  -0.61666
C    -9.63259  -3.46118   0.12863
C    -9.11960  -4.71090   0.48000
C    -7.82981  -5.08489   0.09524
C    -7.05036  -4.19871  -0.65790
C    -7.55488  -2.95234  -1.01505
N    -8.72131  -0.56917  -1.93721
C    -7.85745   0.22569  -2.28673
C    -7.62223   0.70227  -3.59619
N    -7.39651   1.13894  -4.65169
C    -6.79538   0.68602  -0.45173
C    -7.48369   0.32351   0.52135
C    -7.57931   0.26151   1.99996
C    -9.03021  -0.04496   2.47331
F    -9.45977  -1.25583   2.10680
F    -9.15267   0.01504   3.80901
F    -9.87990   0.86055   1.95823
C    -6.64147  -0.86662   2.51023
F    -6.61585  -0.91046   3.85183
F    -7.01593  -2.07984   2.07689
F    -5.38090  -0.68464   2.09461
C    -7.22143   1.63906   2.64869
C    -5.81017   2.22284   2.54371
C    -5.32478   2.77474   1.19550
C    -4.64647   1.78067   0.24261
C    -5.51126   1.26714  -0.95465
C    -5.75731   2.42286  -1.93337
C    -6.94011   3.17132  -1.82611
C    -7.18777   4.24941  -2.67835
C    -6.25552   4.59703  -3.65804
C    -5.06752   3.86804  -3.76262
C    -4.81485   2.79685  -2.90260
C    -4.70770   0.09987  -1.58687
F    -3.41756   0.41596  -1.80115
F    -4.70544  -0.97615  -0.77988
F    -5.20306  -0.30902  -2.77201
H   -11.02732   0.86738  -2.08170
H    -9.97904   1.50210  -0.79765
H   -11.73417   1.25443  -0.48028
H   -10.63308  -3.17513   0.43908
H    -9.73789  -5.39776   1.06250
H    -7.43288  -6.06278   0.37724
H    -6.04029  -4.47861  -0.96523
H    -6.92749  -2.27302  -1.59137
H    -7.93516   2.35948   2.22341
H    -7.45802   1.55227   3.71761
H    -5.82687   3.07132   3.24647
H    -5.06533   1.52347   2.95271
H    -4.57685   3.54839   1.42599
H    -6.14684   3.30679   0.69188
H    -3.76383   2.25160  -0.20984
H    -4.28460   0.91311   0.80931
H    -7.68760   2.89883  -1.07969
H    -8.11916   4.81137  -2.57896
H    -6.45114   5.43184  -4.33489
H    -4.32736   4.13156  -4.52162
H    -3.87786   2.25192  -3.00744
