25
Generated by autodE on: 2022-05-31. E = -464.869552 Ha
C    -1.01127   2.81937  -0.76135
C    -0.23865   1.67328  -1.35086
O     0.75946   1.84440  -2.02785
C    -0.78109   0.25909  -1.08738
C    -1.19152   0.06928   0.30435
C    -1.09977  -0.34648   1.44179
C    -0.55232  -1.09093   2.57144
C     0.91185  -1.44672   2.21169
C     1.13465  -2.04007   0.80236
C     1.37156  -1.06613  -0.38988
C     0.23794  -0.85652  -1.41888
H    -0.79690   2.86906   0.31921
H    -2.09536   2.66026  -0.86580
H    -0.70827   3.76377  -1.23231
H    -1.64573   0.17859  -1.77410
H    -0.59048  -0.52464   3.51597
H    -1.13932  -2.01191   2.73121
H     1.27244  -2.16472   2.96649
H     1.53255  -0.54118   2.32129
H     2.03207  -2.67466   0.87649
H     0.30837  -2.73176   0.55998
H     1.70898  -0.08688  -0.00890
H     2.22612  -1.46300  -0.96039
H    -0.31718  -1.79909  -1.54837
H     0.67881  -0.61070  -2.39652
