20
Generated by autodE on: 2022-05-31. E = -702.169328 Ha
C     4.28341   0.16285  -0.02696
O     2.90361   0.43675  -0.30490
C     2.00333  -0.31950   0.33697
O     2.29071  -1.20823   1.12529
C     0.64284   0.03352  -0.00934
N    -0.42859  -0.63084   0.53889
C    -1.55864  -0.14366   0.07724
C    -2.90691  -0.61706   0.45940
C    -4.06817   0.07085  -0.18033
O    -2.98417  -1.53218   1.26507
O    -1.31599   0.84284  -0.77772
C     0.11943   1.02317  -0.88962
O     0.56500   1.87612  -1.62154
H     4.85864   0.86393  -0.64258
H     4.53443  -0.87323  -0.29709
H     4.50282   0.32538   1.03841
H    -0.36810  -1.39747   1.21369
H    -5.00543  -0.35459   0.19818
H    -4.01108  -0.04653  -1.27514
H    -4.02547   1.15211   0.02916
