46
Generated by autodE on: 2022-06-19. E = -960.742800 Ha
C    -1.88867   3.19487  -3.01490
O    -2.11715   1.81743  -2.69742
C    -2.31781   1.53469  -1.39793
O    -2.34197   2.38154  -0.50881
N    -2.55989   0.21052  -1.18569
C    -1.95675  -0.86449  -1.96405
C    -0.79974  -1.33072  -1.05868
C    -0.35947  -2.76467  -1.35147
C     0.34512  -0.34619  -1.17453
C     1.55078  -0.49880  -0.59375
C     2.60184   0.50184  -0.62758
C     3.74623   0.48997   0.09817
C     4.73707   1.61558  -0.00436
C     4.12382  -0.59661   1.06638
C    -1.53415  -1.24701   0.34462
C    -0.62365  -1.01456   1.52112
C    -0.10172  -2.11849   2.21029
C     0.85263  -1.94818   3.21786
C     1.28801  -0.66471   3.56140
C     0.75842   0.44471   2.89390
C    -0.18593   0.26977   1.88031
N    -2.59740  -0.22376   0.18259
H    -1.74429   3.23198  -4.10114
H    -2.75432   3.80973  -2.72865
H    -0.98916   3.56786  -2.50352
H    -1.63256  -0.49617  -2.94137
H    -2.69104  -1.67157  -2.10628
H     0.09611  -2.83390  -2.35101
H     0.38370  -3.10693  -0.61623
H    -1.21845  -3.45247  -1.30953
H     0.15310   0.58032  -1.72845
H     1.74147  -1.40585  -0.01480
H     2.41859   1.36513  -1.27897
H     4.41432   2.38986  -0.71594
H     5.72623   1.23980  -0.32249
H     4.89352   2.09061   0.98081
H     5.10572  -1.02556   0.79921
H     3.39350  -1.41347   1.12172
H     4.23730  -0.17715   2.08152
H    -2.02242  -2.22321   0.48528
H    -0.43954  -3.12305   1.94363
H     1.25499  -2.82106   3.73762
H     2.03449  -0.52888   4.34750
H     1.09212   1.45198   3.15419
H    -0.56349   1.14318   1.34456
H    -2.41443   0.60845   0.74418
