23
Generated by autodE on: 2022-06-19. E = -609.193653 Ha
C     5.06820   0.26883  -0.71668
O     4.02954  -0.30823   0.07355
C     2.76364   0.03911  -0.25572
O     2.51139   0.81272  -1.18860
N     1.87480  -0.57101   0.56450
N     0.62670  -0.21536   0.22406
C    -0.45457  -0.63424   0.81240
C    -1.80209  -0.24688   0.44329
C    -2.86309  -0.82823   1.16866
C    -4.18676  -0.50921   0.86925
C    -4.47348   0.39575  -0.15717
C    -3.42753   0.98179  -0.88273
C    -2.10346   0.66782  -0.58980
H     4.97028  -0.02089  -1.77420
H     5.05820   1.36727  -0.64457
H     6.01089  -0.12032  -0.31192
H     0.56538   0.44181  -0.57337
H    -0.30709  -1.33135   1.64060
H    -2.63587  -1.53468   1.97027
H    -4.99762  -0.96834   1.43886
H    -5.50990   0.64728  -0.39308
H    -3.64826   1.69089  -1.68349
H    -1.30773   1.14250  -1.16784
