46
Generated by autodE on: 2022-06-19. E = -960.693244 Ha. Imaginary frequency = -431.0 cm-1
C    -3.58564   0.85855  -4.79797
O    -3.14306   0.09034  -3.67475
C    -2.90461   0.77422  -2.54326
O    -3.07963   1.98110  -2.43106
N    -2.44151  -0.07474  -1.56486
C    -0.95240  -1.13158  -2.16004
C    -0.13876  -1.47433  -1.04864
C    -0.32389  -2.81454  -0.37769
C     1.05896  -0.71423  -0.79447
C     2.01282  -1.00124   0.13885
C     3.12414  -0.12790   0.43860
C     4.01922  -0.24745   1.45365
C     5.09596   0.78107   1.66257
C     4.01521  -1.37143   2.45262
C    -1.54695  -0.18409   0.52849
C    -0.65338   0.29282   1.55300
C    -0.30742  -0.58917   2.59857
C     0.65845  -0.23639   3.54140
C     1.29299   1.00716   3.46639
C     0.95452   1.89593   2.43707
C     0.00506   1.54219   1.48345
N    -2.02893   0.58130  -0.45777
H    -3.71056   0.14482  -5.62099
H    -4.54403   1.35233  -4.57984
H    -2.83856   1.61885  -5.06989
H    -0.54733  -0.40444  -2.86949
H    -1.55016  -1.91778  -2.62391
H     0.41463  -3.55187  -0.74298
H    -0.19223  -2.75820   0.71487
H    -1.32695  -3.22143  -0.57530
H     1.16956   0.21408  -1.36992
H     1.90707  -1.91427   0.73006
H     3.21744   0.75419  -0.20788
H     5.06153   1.57690   0.90327
H     6.10061   0.32008   1.63513
H     5.00460   1.25156   2.65888
H     3.94867  -0.97336   3.48073
H     3.18747  -2.07857   2.31192
H     4.96227  -1.93950   2.40504
H    -2.04684  -1.14161   0.66521
H    -0.80318  -1.56006   2.66060
H     0.91979  -0.93746   4.33710
H     2.05205   1.28277   4.20174
H     1.45410   2.86475   2.36691
H    -0.21026   2.23858   0.67049
H    -1.63067   1.51432  -0.60407
