19
Generated by autodE on: 2022-05-28. E = -613.896997 Ha
C    -3.80341   0.39210  -0.30550
N    -2.40144   0.64323  -0.03283
C    -1.47182  -0.31030  -0.21344
O    -1.72301  -1.44819  -0.62311
C    -0.07868   0.07940   0.11527
C     1.03887  -0.65458   0.12460
F     1.17755  -1.93436  -0.17431
C     2.22203   0.20426   0.46295
C     3.13815   0.47778  -0.71998
O     1.57128   1.39915   0.95481
O     0.18130   1.39306   0.46418
H    -4.36252   1.32519  -0.16873
H    -3.94412   0.03895  -1.33834
H    -4.21472  -0.37198   0.37385
H    -2.12146   1.54119   0.34964
H     2.78842  -0.20664   1.31644
H     3.95119   1.15621  -0.42224
H     2.57245   0.92596  -1.55050
H     3.58347  -0.46909  -1.06353
