8
Generated by autodE on: 2022-07-26. E = -229.039293 Ha
C     1.18391   0.16666  -0.97395
C     0.79086  -0.06055   0.41698
O    -0.41905  -0.12847   0.77551
O    -1.39301   0.01804  -0.18353
H     2.27400   0.19644  -1.08112
H     0.72426   1.10819  -1.32615
H     0.74457  -0.62762  -1.60474
H     1.48912  -0.18852   1.25233
