11
Generated by autodE on: 2022-05-28. E = -384.740222 Ha
C    -2.25998   0.13624  -0.78312
N    -1.62384  -0.89425   0.01360
C    -0.34709  -0.93791   0.44148
O     0.10235  -1.86394   1.12736
C     0.51110   0.17750   0.05459
C     1.29713   1.05382  -0.21390
F     2.11852   1.98145  -0.50051
H    -2.67668  -0.28961  -1.70884
H    -1.52631   0.90447  -1.05504
H    -3.07750   0.61818  -0.22424
H    -2.19100  -1.68698   0.30746
