19
Generated by autodE on: 2022-05-28. E = -613.766706 Ha. Imaginary frequency = -394.6 cm-1
C    -3.59170   0.79883  -0.22545
N    -2.18886   0.54914   0.02922
C    -1.54853  -0.48009  -0.53849
O    -2.08493  -1.30128  -1.29530
C    -0.13631  -0.66465  -0.19061
C     0.98062  -1.14132   0.02926
F     1.87696  -2.07645   0.02659
C     2.19747   0.57851   0.74337
C     2.68607   0.97644  -0.59911
O     1.22577   1.16170   1.36621
O     0.23809   1.62288   0.55753
H    -3.77361   1.03191  -1.28750
H    -4.20339  -0.07891   0.03575
H    -3.91679   1.65112   0.38335
H    -1.62016   1.18193   0.59201
H     2.88216   0.09800   1.45326
H     3.41368   1.79536  -0.43718
H     1.88059   1.33018  -1.24913
H     3.23255   0.14591  -1.06656
