14
Generated by autodE on: 2022-05-29. E = -358.147414 Ha
C     2.93931   0.22066   0.08918
N     1.65338  -0.26014   0.54817
C     0.49545   0.11258  -0.04433
O     0.46694   0.93487  -0.98645
C    -0.72086  -0.48962   0.48013
N    -1.85126  -0.12455  -0.11074
N    -3.05075  -0.50701   0.15916
H     2.93099   1.31577  -0.01692
H     3.70716  -0.05535   0.82268
H     3.21934  -0.20959  -0.88818
H     1.62243  -0.97120   1.27092
H    -0.75739  -1.20288   1.30303
H    -1.67121   0.55472  -0.87409
H    -3.65807  -0.01615  -0.50526
