14
Generated by autodE on: 2022-07-26. E = -358.146428 Ha
C     1.52764   1.09753   1.57033
N     0.60275   0.27609   0.82161
C     0.20441   0.62142  -0.42398
O     0.60891   1.65526  -0.99523
C    -0.73600  -0.27272  -1.09696
N    -1.23172  -1.39418  -0.58419
N    -0.99577  -1.91781   0.57970
H     2.49232   1.20396   1.04671
H     1.70996   0.63092   2.54662
H     1.12854   2.11228   1.73541
H     0.21211  -0.58979   1.20597
H    -1.07067  -0.01777  -2.09973
H    -1.88123  -1.88252  -1.21659
H    -1.54762  -2.77706   0.63577
