37
Generated by autodE on: 2022-05-29. E = -876.001581 Ha. Imaginary frequency = -291.3 cm-1
C     3.40498   0.68556   1.46810
N     2.54489  -0.15264   0.66111
C     2.20788   0.14619  -0.60537
O     2.71268   1.06752  -1.26590
C     1.16455  -0.69835  -1.25101
N     0.72024  -1.85789  -0.74520
N     0.46227  -1.95162   0.54715
C    -0.98921  -0.44371   0.75082
C    -0.59465  -0.16585   2.09553
N    -0.32121  -0.02191   3.21881
C    -2.39921  -1.03695   0.51113
C    -2.39653  -2.02533  -0.68123
C    -2.09771  -1.10519  -1.90078
C    -1.98052   0.29819  -1.25931
C    -3.07006   0.19015  -0.15879
C    -0.74498   0.43781  -0.34938
C    -0.06034   1.73083  -0.20671
C    -0.10023   2.68160  -1.37904
O     0.52831   2.04989   0.82805
H     3.62193   1.61346   0.92515
H     4.35879   0.18531   1.70343
H     2.90052   0.93232   2.41455
H     1.97352  -0.86872   1.11616
H     1.12744  -0.62023  -2.33750
H     0.23493  -2.47835  -1.39964
H    -0.01625  -2.84119   0.71908
H    -2.86109  -1.43256   1.42353
H    -1.69358  -2.85892  -0.55868
H    -3.39737  -2.47268  -0.76214
H    -1.20857  -1.39139  -2.47643
H    -2.94197  -1.10519  -2.60528
H    -2.09323   1.11569  -1.97819
H    -4.07535  -0.03117  -0.55267
H    -3.11147   1.07257   0.49579
H     0.06090   2.15835  -2.33184
H     0.66261   3.45816  -1.23919
H    -1.09107   3.16362  -1.42722
