42
Generated by autodE on: 2022-05-30. E = -921.189642 Ha
C    -3.57945  -0.74136  -0.20487
C    -2.09217  -0.92481   0.05452
C    -1.89004  -1.82490   1.27728
O    -1.54106  -1.56895  -1.11269
C    -0.16201  -1.30538  -1.21455
C     0.62401  -2.40194  -0.60668
N     1.20524  -3.31388  -0.18656
C     0.11720   0.11978  -0.60449
C     1.42842   0.11110   0.17455
C     2.62305   0.40529  -0.50832
C     3.86290   0.31822   0.12767
C     3.94181  -0.06941   1.46776
C     2.76731  -0.38034   2.15540
C     1.52842  -0.29828   1.51388
C     0.08562   1.17153  -1.75816
C     0.30449   2.58367  -1.17571
C    -1.05162   2.88697  -0.47940
C    -1.86689   1.60107  -0.72487
C    -1.40188   1.22627  -2.13869
C    -1.27560   0.43042   0.14207
C    -1.20668   0.88146   1.52517
N    -1.23015   1.28321   2.61449
H    -4.06730  -1.72673  -0.23389
H    -4.03354  -0.15646   0.60797
H    -3.76954  -0.23443  -1.15895
H    -0.83193  -1.96262   1.53274
H    -2.40424  -1.41048   2.15523
H    -2.31950  -2.81259   1.05673
H     0.10544  -1.30713  -2.28284
H     2.59398   0.70164  -1.55648
H     4.77150   0.55503  -0.43103
H     4.91045  -0.13525   1.96868
H     2.80876  -0.69815   3.19981
H     0.64143  -0.57613   2.07807
H     0.77110   0.90716  -2.57203
H     1.15495   2.63073  -0.48429
H     0.50381   3.29237  -1.99245
H    -1.56824   3.73156  -0.95734
H    -0.94436   3.13178   0.58573
H    -2.94197   1.72873  -0.56336
H    -1.61295   2.02566  -2.86394
H    -1.81159   0.28425  -2.51850
