14
Generated by autodE on: 2022-05-30. E = -324.775602 Ha
C    -2.37784  -1.12340   0.49181
C    -1.15214  -0.34288   0.19713
C    -1.18737   1.10311  -0.11260
O    -0.05472  -1.00383   0.22606
C     1.25162  -0.67443   0.01615
C     1.73677   0.58378  -0.31092
N     2.24837   1.60900  -0.58959
H    -2.90721  -0.68349   1.35534
H    -3.07492  -1.06726  -0.36307
H    -2.13786  -2.17364   0.70223
H    -0.75417   1.29806  -1.10877
H    -2.22066   1.47029  -0.09114
H    -0.58550   1.67140   0.61762
H     1.90714  -1.53273   0.13733
