37
Generated by autodE on: 2022-06-17. E = -913.969912 Ha
C    -4.06194   0.07345   1.53394
N    -2.99218   0.68016   0.75324
C    -3.23303   0.95959  -0.58022
C    -2.28779   0.96626  -1.54312
C    -0.85258   0.63524  -1.25918
C    -0.67870  -0.19302   0.04145
C    -0.90333  -1.68450  -0.20988
N    -2.05769  -1.99988  -0.82219
O    -0.09424  -2.54759   0.14446
C    -1.63986   0.35920   1.14718
C    -0.80051   1.50668   1.66087
N     0.45353   1.42864   1.44263
C     0.71283   0.16009   0.69360
C     1.12270  -0.79579   1.74676
N     1.50568  -1.41681   2.64953
C     1.86390   0.30342  -0.30330
C     2.37635  -0.82894  -0.95337
C     3.39901  -0.69678  -1.89491
C     3.92145   0.56543  -2.19601
C     3.41537   1.69406  -1.54671
C     2.39219   1.56421  -0.60228
H    -3.91156   0.27390   2.60449
H    -5.02428   0.51336   1.23645
H    -4.11969  -1.02104   1.38693
H    -4.27878   1.17743  -0.81294
H    -2.56999   1.24335  -2.56003
H    -0.26339   1.56183  -1.17056
H    -0.40136   0.08423  -2.09830
H    -2.23639  -2.97523  -1.04339
H    -2.67647  -1.28132  -1.19153
H    -1.69139  -0.37997   1.96611
H    -1.23330   2.34143   2.22444
H     1.96644  -1.81283  -0.72413
H     3.78955  -1.58594  -2.39537
H     4.72143   0.66752  -2.93308
H     3.81747   2.68440  -1.77299
H     2.00193   2.44464  -0.09292
