17
Generated by autodE on: 2022-06-17. E = -456.183612 Ha
C     1.42262  -2.56224  -1.44151
N     1.31096  -1.46275  -0.98099
C     1.10660  -0.34385  -0.33504
C     2.24823   0.44054  -0.01523
N     3.17350   1.09762   0.25438
C    -0.25081   0.07582   0.05219
C    -0.44737   1.27999   0.75470
C    -1.73121   1.67485   1.13145
C    -2.83820   0.87975   0.81688
C    -2.64851  -0.31773   0.11833
C    -1.36880  -0.71908  -0.26488
H     1.43597  -2.90033  -2.48614
H     0.40945   1.90782   1.00850
H    -1.86618   2.61229   1.67603
H    -3.84232   1.19156   1.11266
H    -3.50589  -0.94608  -0.13417
H    -1.23741  -1.65380  -0.81372
