37
Generated by autodE on: 2022-06-17. E = -913.899194 Ha. Imaginary frequency = -505.9 cm-1
C    -3.51933   1.94403   1.06644
N    -2.75680   1.09525   0.16624
C    -2.23332   1.65578  -0.99712
C    -1.38595   1.00283  -1.81125
C    -0.96095  -0.42053  -1.56330
C    -1.33255  -0.85847  -0.16194
C    -0.99696  -2.18646   0.33536
N    -0.31437  -3.00963  -0.51901
O    -1.32981  -2.59501   1.46977
C    -2.14465  -0.06009   0.66288
C    -0.85889   0.70779   2.08175
N     0.30850   0.43934   1.88848
C     1.15667  -0.17437   1.06023
C     1.65169  -1.43929   1.47482
N     2.05435  -2.49043   1.78058
C     1.76309   0.52755  -0.06865
C     2.69271  -0.13668  -0.89763
C     3.22154   0.50288  -2.01648
C     2.84450   1.81563  -2.32666
C     1.92850   2.48123  -1.50664
C     1.38524   1.84643  -0.38933
H    -3.97847   1.32632   1.85006
H    -2.89513   2.71753   1.54949
H    -4.32273   2.45080   0.51228
H    -2.56703   2.67449  -1.20630
H    -1.02396   1.50912  -2.70775
H     0.12557  -0.52132  -1.74193
H    -1.42961  -1.09486  -2.31132
H     0.12425  -3.81915  -0.08985
H     0.18326  -2.60764  -1.30622
H    -2.70057  -0.56449   1.45709
H    -1.32116   1.32184   2.86309
H     2.99078  -1.16113  -0.66604
H     3.93558  -0.02683  -2.65124
H     3.26491   2.31608  -3.20171
H     1.62741   3.50509  -1.73990
H     0.67164   2.37726   0.24153
