32
Generated by autodE on: 2022-06-23. E = -744.226738 Ha
C    -3.01663  -2.30999  -0.04554
N    -2.33970  -1.17429   0.54445
C    -1.54208  -0.35978  -0.21061
O    -1.19260  -0.70024  -1.35996
C    -1.12963   0.89096   0.39914
C    -1.66831   1.36191   1.59767
N    -2.13293   1.73973   2.60951
N    -0.19910   1.71168  -0.29130
C    -0.60516   3.10071  -0.55594
C     0.89653   1.21593  -0.82600
C     1.62999   1.99199  -1.87047
C     1.45644  -0.06844  -0.36232
C     1.96380  -0.99853  -1.28469
C     2.53650  -2.19259  -0.84175
C     2.62813  -2.46147   0.52597
C     2.14181  -1.52987   1.45233
C     1.54995  -0.34731   1.01511
H    -2.30193  -2.93907  -0.59502
H    -3.81556  -2.01494  -0.75011
H    -3.46715  -2.91301   0.75372
H    -2.71163  -0.80736   1.41411
H    -1.25401   3.42972   0.26377
H    -1.17081   3.14661  -1.49823
H     0.26780   3.76004  -0.60951
H     0.94591   2.46190  -2.59107
H     2.33675   1.34735  -2.40448
H     2.21695   2.79452  -1.39029
H     1.88754  -0.79906  -2.35471
H     2.91362  -2.91377  -1.57018
H     3.08231  -3.39237   0.87314
H     2.22571  -1.72723   2.52338
H     1.17319   0.37258   1.74251
