55
Generated by autodE on: 2022-06-23. E = -1095.711395 Ha. Imaginary frequency = -318.4 cm-1
C     2.63550  -3.98525  -3.18068
C     2.53524  -2.74069  -2.65855
C     3.76054  -1.94630  -2.28547
C     1.22490  -2.15755  -2.41287
C     1.01012  -0.93581  -1.85046
C    -0.29291  -0.39424  -1.60075
C    -0.40426  -1.38004   0.72009
C    -1.34034  -2.37917   0.36040
N    -2.02780  -3.27385   0.04421
C     0.99656  -1.82292   0.90701
O     1.91015  -1.01791   1.16411
N     1.23447  -3.14550   0.72852
C     2.55673  -3.73132   0.72078
N    -0.79336  -0.16564   1.28622
C    -0.22445   0.16220   2.60627
C    -1.65174   0.69245   0.59822
C    -2.91130   0.05353   0.04015
C    -1.85671   2.06330   1.16643
C    -3.14277   2.64344   1.20016
C    -3.34735   3.94058   1.67503
C    -2.27093   4.70519   2.12845
C    -0.98748   4.15159   2.10545
C    -0.78479   2.85545   1.63455
C    -0.56117   0.95759  -1.24796
C    -1.60563   1.67959  -2.08183
C     0.63605   1.82086  -0.91608
H     3.60772  -4.45361  -3.35627
H     1.74295  -4.56198  -3.44166
H     4.67969  -2.51364  -2.48799
H     3.74343  -1.67856  -1.21675
H     3.80600  -0.99901  -2.84785
H     0.35772  -2.76920  -2.68667
H     1.87060  -0.33253  -1.56040
H    -1.12659  -0.98091  -1.99789
H     0.45367  -3.74913   0.49458
H     3.28074  -2.98511   1.06687
H     2.84325  -4.06828  -0.28923
H     2.59572  -4.59899   1.39776
H    -0.06495  -0.77685   3.14928
H     0.73070   0.69522   2.55432
H    -0.94747   0.76206   3.17096
H    -2.70766  -0.81067  -0.59273
H    -3.49440   0.76165  -0.55316
H    -3.54090  -0.28608   0.88002
H    -4.01009   2.07871   0.86447
H    -4.35945   4.35155   1.69058
H    -2.42892   5.72137   2.49709
H    -0.13154   4.73369   2.45466
H     0.22838   2.46680   1.62672
H    -2.07032   2.51337  -1.53227
H    -2.39480   1.00871  -2.44615
H    -1.11024   2.11165  -2.96942
H     0.32981   2.83468  -0.62893
H     1.24152   1.38941  -0.10702
H     1.28525   1.92230  -1.80318
