16
Generated by autodE on: 2022-10-06. E = -326.060781 Ha
C    -3.24820  -0.35037   0.09092
C    -1.94647  -0.74427  -0.49739
N    -0.82017  -0.22018  -0.11516
C     0.47924  -0.43820  -0.51963
C     1.45876   0.32701   0.13500
C     2.90396   0.13109  -0.26717
O     1.17429   1.16646   1.04047
H    -3.12379   0.41997   0.86674
H    -3.92499   0.03645  -0.69099
H    -3.75247  -1.22630   0.53532
H    -1.89781  -1.50297  -1.28474
H    -0.84717   0.49683   0.62709
H     0.66297  -1.17240  -1.30118
H     3.03171  -0.62599  -1.05412
H     3.31894   1.09009  -0.62005
H     3.49299  -0.16515   0.61687
