29
Generated by autodE on: 2022-10-06. E = -571.306053 Ha. Imaginary frequency = -467.4 cm-1
C    -3.58003  -0.75520  -0.10160
N    -2.26301  -1.34164   0.07185
C    -1.22629  -0.58729   0.65996
N    -1.43234   0.34857   1.71343
N    -0.08165  -1.30095   0.80516
C     1.41205  -0.07258  -0.88066
C     2.76385  -0.04761  -0.31279
C     3.14764   1.07772   0.61240
O     3.53373  -0.96562  -0.58794
N     0.53378   0.89311  -0.68515
C    -0.81526   0.77972  -0.88010
C    -1.59861   2.05551  -0.77860
H    -3.94131  -0.20659   0.78796
H    -4.29234  -1.56433  -0.30948
H    -3.60494  -0.06946  -0.96114
H    -2.30188  -2.27377   0.48117
H    -1.72236  -0.15971   2.55492
H    -2.18090   1.00212   1.49054
H     0.56935  -1.05219   1.54192
H     0.01507  -2.21176   0.36828
H     1.14928  -0.88217  -1.56146
H     3.06050   2.05199   0.10293
H     2.47735   1.09991   1.48771
H     4.18246   0.93436   0.94701
H     0.82243   1.67802  -0.09283
H    -1.08104   0.07385  -1.67032
H    -2.66880   1.85751  -0.63888
H    -1.49253   2.65115  -1.70170
H    -1.24511   2.66850   0.06512
