42
Generated by autodE on: 2022-06-21. E = -1161.095373 Ha
C     2.99847  -0.94374   2.54188
N     2.09157  -0.31262   1.60316
C     2.13285  -0.56574   0.29275
O     2.98667  -1.24770  -0.27961
C     0.99074   0.05874  -0.54443
C     1.66358   0.91125  -1.65195
O     2.11197   0.37544  -2.66438
N     1.74185   2.21793  -1.36705
C     2.32611   3.19824  -2.25995
O     0.16331   0.88517   0.27481
C    -1.19922   0.51089   0.21360
C    -2.00641   1.74228   0.13425
N    -2.62756   2.70390   0.09528
C    -1.56618  -0.14874   1.57426
O    -0.77159  -0.27677   2.47493
O    -2.84622  -0.45858   1.63349
C    -3.31762  -1.06596   2.85215
C    -1.34439  -0.37653  -1.09097
C    -1.51271   0.54851  -2.31110
C    -2.50036  -1.37731  -1.08718
C     0.06987  -1.02601  -1.16217
C     0.19737  -2.36383  -0.45508
O    -0.22796  -2.58393   0.65921
H     3.94858  -1.16715   2.04130
H     3.18770  -0.26773   3.38681
H     2.57770  -1.88552   2.93201
H     1.22823   0.09796   1.95926
H     1.25932   2.53675  -0.53188
H     3.05642   3.82078  -1.72195
H     1.55292   3.85685  -2.68676
H     2.83628   2.67569  -3.07773
H    -4.38487  -1.25632   2.69693
H    -2.77878  -2.00665   3.03059
H    -3.16502  -0.38018   3.69677
H    -2.51889   0.99013  -2.32219
H    -0.78284   1.36953  -2.32702
H    -1.38810  -0.04163  -3.22928
H    -3.45904  -0.84274  -1.03397
H    -2.47595  -1.93907  -2.03326
H    -2.45788  -2.09168  -0.25923
H     0.36325  -1.17809  -2.20630
H     0.72187  -3.15921  -1.02962
