28
Generated by autodE on: 2022-06-21. E = -890.321685 Ha
C    -2.08759   3.31883   2.33010
N    -1.22776   2.40649   1.60150
C    -1.73815   1.48376   0.77410
O    -2.95788   1.34407   0.58494
C    -0.76224   0.57461   0.10376
O     0.46926   0.75455   0.46677
C     1.56060   0.02660   0.22944
C     2.76942   0.67449   0.55359
N     3.77967   1.20940   0.79161
C     1.48350  -1.41805   0.01992
O     0.47012  -2.07672   0.17714
O     2.68064  -1.92848  -0.27844
C     2.76243  -3.35909  -0.38116
C    -1.08625  -0.22776  -1.11481
O    -0.20256  -0.43583  -1.95421
N    -2.36361  -0.60797  -1.24356
C    -2.83779  -1.25448  -2.45000
H    -2.77278   2.76928   2.99462
H    -1.46144   3.98538   2.93423
H    -2.69631   3.92489   1.64095
H    -0.22158   2.46683   1.72142
H     2.07823  -3.72449  -1.16014
H     3.80107  -3.58056  -0.65072
H     2.50971  -3.82722   0.58110
H    -3.02308  -0.18808  -0.58336
H    -2.96170  -0.53578  -3.27784
H    -2.11947  -2.02204  -2.76940
H    -3.80620  -1.72747  -2.24548
