20
Generated by autodE on: 2022-06-17. E = -457.715339 Ha
C    -3.08586   0.04210   0.76465
N    -1.81436  -0.22218   0.11144
C    -1.74772  -1.18683  -0.90180
C    -0.59610  -1.53309  -1.49819
C     0.73592  -0.92514  -1.13448
C     0.56762   0.09646  -0.02143
C     1.72134   0.83517   0.51579
N     2.92574   0.53809  -0.03447
O     1.63358   1.68948   1.42150
C    -0.65527   0.36882   0.51564
H    -2.97390   0.89291   1.44827
H    -3.43065  -0.83121   1.34374
H    -3.85929   0.29035   0.02122
H    -2.70569  -1.63416  -1.17311
H    -0.62570  -2.28963  -2.28569
H     1.44810  -1.72210  -0.83703
H     1.19991  -0.46180  -2.02936
H     3.74768   1.02593   0.30423
H     3.03673  -0.14495  -0.77266
H    -0.74766   1.10392   1.31673
