36
Generated by autodE on: 2022-05-29. E = -1197.612067 Ha
C    -3.67729   0.95636   1.38313
O    -2.45013   0.23064   1.19894
C    -2.03420   0.07732  -0.04805
O    -2.65201   0.44494  -1.02329
C    -0.66365  -0.65360  -0.13172
C    -0.77153  -1.46218  -1.44730
C    -1.31642  -2.85155  -1.35061
O    -0.45363  -0.94012  -2.49639
N    -0.54073  -1.50320   1.04867
C     0.38112  -1.06913   1.82280
C     0.69490  -1.67444   3.14611
C     1.19906   0.07194   1.28238
C     2.68419  -0.32851   0.90196
C     2.64255  -1.71498   0.27988
C     2.09834  -1.54096  -0.93091
C     1.82821  -0.04710  -1.04125
O     2.88651   0.49895  -0.24579
C     0.57973   0.32997  -0.11695
C     0.23389   1.79633  -0.37035
F    -0.25655   1.98187  -1.60956
F    -0.69640   2.26004   0.49490
F     1.29072   2.61156  -0.24688
H    -3.85247   0.97832   2.46444
H    -4.50388   0.44556   0.86991
H    -3.57193   1.97765   0.99008
H    -2.25997  -2.85572  -0.78335
H    -0.60701  -3.47730  -0.78703
H    -1.46670  -3.26314  -2.35667
H     0.56621  -0.91601   3.93617
H     0.04482  -2.53350   3.35582
H     1.74969  -1.99313   3.18209
H     1.20804   0.94432   1.94980
H     3.42573  -0.13210   1.68232
H     2.91684  -2.64427   0.77816
H     1.84174  -2.29030  -1.67695
H     1.80516   0.39417  -2.04055
