20
Generated by autodE on: 2022-05-29. E = -552.814550 Ha
C    -1.58977   3.43622   0.25352
C    -1.07243   2.09454   0.15310
N    -0.64615   1.02150   0.07742
C    -0.26598  -0.28305  -0.00982
C    -1.35783  -1.23253  -0.03465
C    -1.04192  -2.70667  -0.12833
O    -2.53562  -0.84408   0.02008
C     1.15050  -0.56503  -0.06647
O     1.66398  -1.67582  -0.14551
O     1.89793   0.56787  -0.02204
C     3.31565   0.39679  -0.07315
H    -2.67513   3.37273   0.43236
H    -1.40679   3.99041  -0.68011
H    -1.11761   3.95742   1.10083
H    -0.46889  -2.93028  -1.04045
H    -0.42213  -3.03149   0.72063
H    -1.98812  -3.26427  -0.13513
H     3.67208  -0.19906   0.78061
H     3.74464   1.40533  -0.02874
H     3.61971  -0.09814  -1.00780
