16
Generated by autodE on: 2022-05-29. E = -644.713711 Ha
F     1.55836   1.19445   1.00950
C     1.50487   0.08350   0.23917
F     2.14049  -0.89477   0.90554
F     2.23685   0.35465  -0.86350
C     0.10697  -0.26761  -0.09353
C    -0.60538  -1.34351   0.24667
C    -2.03006  -1.03552  -0.27065
C    -2.59030   0.10298   0.61431
C    -1.87622   1.18120   0.27976
C    -0.89199   0.68279  -0.80286
O    -1.70801  -0.29676  -1.46621
H    -0.30786  -2.21971   0.82066
H    -2.68247  -1.89101  -0.47332
H    -3.35887  -0.01848   1.37663
H    -1.89819   2.19076   0.68799
H    -0.47139   1.41984  -1.49481
