47
Generated by autodE on: 2022-06-05. E = -3721.080370 Ha
C    -3.22865   2.73829  -0.17504
N    -2.18094   1.80327   0.18046
C    -2.31664   0.48502   0.02898
O    -3.37024  -0.05293  -0.34097
C    -1.09082  -0.36911   0.41547
C    -1.44157  -1.28096   1.62791
O    -0.58853  -1.50565   2.48897
N    -2.66448  -1.81928   1.64026
C    -3.06290  -2.77025   2.65906
O    -0.05486   0.51326   0.84650
C     1.19336   0.20878   0.25865
C     2.06788   1.48826   0.12017
C     1.51477   2.78239   0.62828
O     3.19229   1.35596  -0.32045
C     2.02430  -0.65278   1.25257
O     2.62160  -1.67673   1.01885
O     2.03831  -0.03145   2.42660
C     2.72040  -0.69184   3.50524
C     0.82587  -0.43727  -1.09704
C     1.91643  -1.16834  -1.84742
Br    0.34559   1.16023  -2.30197
C    -0.48254  -1.23140  -0.78530
C    -1.41189  -1.40463  -1.99169
C    -0.12233  -2.66803  -0.33537
H    -3.26873   2.90412  -1.26467
H    -3.03589   3.69821   0.32013
H    -4.20495   2.35366   0.15057
H    -1.26599   2.14494   0.45319
H    -3.30568  -1.54000   0.89725
H    -3.02235  -2.32058   3.66378
H    -4.09055  -3.09618   2.45817
H    -2.40136  -3.65125   2.65489
H     2.27815   3.56461   0.53164
H     0.61551   3.07054   0.06520
H     1.21974   2.65992   1.68173
H     3.77227  -0.87025   3.24231
H     2.22359  -1.64662   3.72844
H     2.64882  -0.01501   4.36370
H     2.76264  -0.49667  -2.03776
H     2.28262  -2.01252  -1.25321
H     1.53200  -1.54198  -2.80623
H    -0.85553  -1.90484  -2.79819
H    -2.25836  -2.04642  -1.71574
H    -1.80934  -0.46269  -2.37984
H     0.57108  -2.70970   0.50750
H     0.31895  -3.21378  -1.17907
H    -1.04292  -3.19319  -0.05055
