32
Generated by autodE on: 2022-06-05. E = -950.769397 Ha
C    -1.52260   3.81428   0.20441
N    -1.59134   2.40121   0.51300
C    -0.75849   1.52051  -0.05938
O     0.17048   1.83636  -0.81974
C    -1.03853   0.08508   0.20449
O    -0.17199  -0.82581  -0.13765
C     1.12463  -0.79198  -0.37684
C     1.67463  -2.04281  -0.89960
C     0.70198  -3.16125  -1.18269
O     2.88354  -2.16526  -1.09574
C     1.94173   0.30290   0.19649
O     1.68934   0.79377   1.28296
O     2.99770   0.61791  -0.54126
C     3.87135   1.62759  -0.00806
C    -2.38451  -0.44640   0.54553
O    -3.27184   0.30876   0.98310
N    -2.57332  -1.76660   0.39185
C    -3.83929  -2.38945   0.72411
H    -0.47707   4.15226   0.21977
H    -2.09294   4.37288   0.95686
H    -1.93858   4.03823  -0.79279
H    -2.41855   1.99982   0.96421
H     1.25374  -4.01118  -1.60311
H     0.20142  -3.47318  -0.25112
H    -0.08219  -2.83811  -1.88406
H     3.31981   2.56905   0.12593
H     4.66970   1.75376  -0.74779
H     4.28997   1.30438   0.95554
H    -1.82021  -2.33794   0.02508
H    -4.09118  -2.23282   1.78476
H    -4.65981  -1.97604   0.11647
H    -3.76189  -3.46593   0.53175
