37
Generated by autodE on: 2022-05-31. E = -1289.882916 Ha
C     3.19619   2.25917   1.30730
O     2.05636   1.84136   0.53775
C     2.15258   0.68160  -0.10454
O     3.14758  -0.00721  -0.12654
C     0.84470   0.32293  -0.80431
C     0.02495   1.53957  -1.19466
C     0.56223   2.56356  -2.13289
N    -1.16276   1.58457  -0.72271
C    -1.41114   0.44507   0.16181
C    -1.63647   1.01522   1.50284
N    -1.89694   1.51014   2.51845
C    -2.77398  -0.27857  -0.15365
C    -3.78764   0.49817  -0.92402
O    -2.94167  -1.39732   0.27446
C    -0.16838  -0.52215   0.05186
C     0.32408  -1.02091   1.41848
F     0.79179  -0.02397   2.19568
F     1.30796  -1.92194   1.32169
F    -0.68223  -1.60404   2.09239
C    -0.31970  -1.80159  -0.89836
C    -1.02936  -1.39837  -2.18034
C    -0.12723  -0.69851  -2.87870
C     1.11894  -0.67628  -2.01056
O     1.03510  -1.92610  -1.33117
H     4.07613   2.36669   0.65804
H     3.40377   1.52291   2.09670
H     2.92315   3.22479   1.74682
H     1.45968   3.03452  -1.70388
H    -0.19181   3.33251  -2.34098
H     0.86989   2.08628  -3.07740
H    -3.97563   1.46343  -0.42863
H    -3.39021   0.72772  -1.92444
H    -4.71409  -0.08396  -1.00377
H    -0.66916  -2.70052  -0.38418
H    -2.06602  -1.61743  -2.42827
H    -0.24771  -0.17804  -3.82779
H     2.08999  -0.53321  -2.49189
