23
Generated by autodE on: 2022-06-20. E = -351.521383 Ha
C     3.13975   1.63188  -1.33378
C     2.37100   0.66068  -0.79381
C     2.94756  -0.68407  -0.43141
C     0.95047   0.90431  -0.55124
C     0.07471   0.01394  -0.02098
C    -1.32687   0.30731   0.19866
C    -2.26448  -0.52465   0.71868
C    -1.99561  -1.93306   1.16724
C    -3.68700  -0.07042   0.88604
H     4.20495   1.47627  -1.52622
H     2.71812   2.60711  -1.59622
H     2.81438  -0.89733   0.64226
H     4.02099  -0.73244  -0.66264
H     2.43856  -1.49522  -0.97821
H     0.58081   1.89855  -0.82973
H     0.43623  -0.97938   0.25854
H    -1.65055   1.31430  -0.09147
H    -0.95429  -2.25064   1.02801
H    -2.25033  -2.04853   2.23569
H    -2.64613  -2.63843   0.62054
H    -4.37583  -0.72502   0.32225
H    -3.99833  -0.14001   1.94391
H    -3.83555   0.96532   0.54693
