22
Generated by autodE on: 2022-06-04. E = -885.215170 Ha
C     2.80704  -1.19628   0.23116
C     1.91133   0.01660   0.26596
O     2.30348   1.08906   0.72071
C     0.55476  -0.15380  -0.27856
C    -0.52944   0.64373  -0.10000
Cl   -0.66137   2.09635   0.81690
C    -1.75174  -0.04063  -0.66464
C    -2.04182  -1.23052   0.31100
C    -0.82844  -2.17495   0.08053
C     0.01469  -1.40178  -0.98223
C    -1.10325  -0.78664  -1.84850
H     3.00657  -1.48447  -0.81413
H     3.75527  -0.97514   0.73826
H     2.31355  -2.05736   0.70978
H    -2.60642   0.61660  -0.86143
H    -2.98971  -1.71018   0.02714
H    -2.13437  -0.88510   1.35033
H    -1.14860  -3.14588  -0.32546
H    -0.25147  -2.36521   0.99634
H     0.76766  -2.00839  -1.49773
H    -1.76972  -1.53842  -2.29704
H    -0.72295  -0.10915  -2.62674
