48
Generated by autodE on: 2022-06-04. E = -1567.036692 Ha. Imaginary frequency = -267.7 cm-1
C     3.16968   2.60648   0.93178
N     2.67556   1.43481   0.23706
C     1.84569   0.56919   0.85887
O     1.64093   0.62893   2.07761
C     1.24335  -0.49059  -0.02629
C     2.12736  -0.78655  -1.22573
O     2.04607  -0.10320  -2.25412
N     3.06563  -1.73565  -1.07863
C     3.98837  -2.05922  -2.15198
N     0.56469  -1.53722   0.56814
C     0.56781  -2.89624  -0.00421
C    -0.36636  -1.22397   1.50807
C    -1.21635  -2.22338   2.04903
N    -1.98456  -2.97050   2.50831
C    -1.63667   0.22082   0.29569
C    -2.11198   0.87657   1.53265
C    -3.48819   0.50239   2.03102
O    -1.40301   1.64322   2.18282
C    -2.58342  -0.58235  -0.60525
C    -3.42323   0.47420  -1.39289
C    -2.37541   1.10883  -2.35175
C    -1.07019   0.33223  -2.00874
C    -1.64842  -1.06260  -1.73006
C    -0.66261   0.76092  -0.60121
Cl   -0.11869   2.44018  -0.47133
H     3.84348   3.15618   0.26315
H     3.72562   2.31767   1.83516
H     2.34444   3.27266   1.23597
H     2.65319   1.46082  -0.77834
H     3.15386  -2.22257  -0.19284
H     4.60531  -2.91076  -1.84117
H     3.44165  -2.32765  -3.06864
H     4.64517  -1.20535  -2.38301
H     0.75776  -2.87542  -1.07988
H    -0.40513  -3.36748   0.16803
H     1.34455  -3.49900   0.48726
H    -0.12878  -0.38880   2.16145
H    -4.26569   0.73204   1.28820
H    -3.69446   1.04361   2.96352
H    -3.53605  -0.58226   2.21830
H    -3.17595  -1.34874  -0.09132
H    -3.89500   1.21582  -0.73494
H    -4.22500  -0.03353  -1.94990
H    -2.25807   2.19106  -2.20651
H    -2.63433   0.93579  -3.40660
H    -0.26857   0.41531  -2.74799
H    -0.90814  -1.80041  -1.42521
H    -2.20455  -1.46208  -2.59068
