37
Generated by autodE on: 2022-10-21. E = -825.664524 Ha
C     2.56447  -0.68737   1.48891
O     1.28012  -0.07865   1.43335
C     0.65259  -0.02008   0.17800
C     1.51409   0.68490  -0.93731
C     2.00661   2.00274  -0.36330
C     0.93068   2.79737  -0.34511
C    -0.20922   1.94998  -0.88890
O     0.47812   1.10604  -1.83253
C    -0.62370   0.90933   0.21790
C    -0.88184   1.58369   1.56083
C    -1.80912  -0.01676  -0.24509
C    -2.71150   0.58331  -1.31658
C    -2.67742  -0.52088   0.91326
O    -1.16765  -1.15913  -0.86923
C     0.09715  -1.41626  -0.29955
C     0.92332  -2.17136  -1.34217
C    -0.05939  -2.30736   0.88635
N    -0.19538  -3.06087   1.75812
H     2.91414  -0.58373   2.52509
H     3.28775  -0.18973   0.82239
H     2.52986  -1.76048   1.23871
H     2.25114   0.05653  -1.44366
H     3.01228   2.19537   0.00898
H     0.83427   3.80966   0.04634
H    -1.03541   2.48850  -1.35986
H    -1.03583   0.85412   2.36425
H    -1.77832   2.21981   1.49580
H    -0.03435   2.21667   1.85121
H    -3.52030  -0.12350  -1.55528
H    -2.15399   0.78741  -2.23975
H    -3.16850   1.51689  -0.95728
H    -3.34624  -1.30631   0.53143
H    -3.29742   0.28981   1.32050
H    -2.08618  -0.94298   1.73534
H     1.94162  -2.36431  -0.97921
H     0.43625  -3.13094  -1.56663
H     0.96497  -1.57829  -2.26418
