17
Generated by autodE on: 2022-10-26. E = -364.110108 Ha
C    -1.72389  -0.46921   0.91696
C    -1.00809   0.79916   0.65668
C    -1.52985   2.11426   1.10306
O     0.11033   0.83359   0.02470
C     0.92792  -0.09545  -0.54569
C     2.14885   0.49968  -1.17769
C     0.67130  -1.46236  -0.53054
N     0.55355  -2.63554  -0.57588
H    -2.65673  -0.27166   1.45956
H    -1.09979  -1.15782   1.51253
H    -1.95977  -0.98688  -0.02910
H    -2.52822   2.29676   0.66668
H    -1.66411   2.11895   2.19953
H    -0.85076   2.92705   0.81426
H     2.75915  -0.29897  -1.62280
H     2.78166   1.03425  -0.44562
H     1.89692   1.21435  -1.98231
