17
Generated by autodE on: 2022-10-21. E = -364.110109 Ha
C    -2.34968  -1.58282   0.01025
C    -1.35612  -0.48646  -0.09902
C    -1.73311   0.89186  -0.48268
O    -0.14020  -0.81482   0.15608
C     1.05391  -0.15873   0.17824
C     2.20857  -1.04439   0.53422
C     1.19034   1.20324  -0.06869
N     1.42051   2.34500  -0.25749
H    -1.86742  -2.52438   0.30370
H    -2.87226  -1.72167  -0.95310
H    -3.12663  -1.32120   0.75067
H    -2.81090   0.94769  -0.67980
H    -1.18352   1.20910  -1.38594
H    -1.47709   1.60796   0.31729
H     2.33824  -1.87234  -0.18638
H     2.09828  -1.49325   1.53850
H     3.13719  -0.45608   0.53409
