37
Generated by autodE on: 2022-10-21. E = -825.549617 Ha. Imaginary frequency = -132.6 cm-1
C     2.34619  -0.80898   1.72106
O     1.17272   0.00178   1.75041
C     0.77542   0.55628   0.58706
C     1.67949   0.79423  -0.64446
C     2.25933   2.22146  -0.46784
C     1.21171   3.03595  -0.63717
C     0.01034   2.09183  -0.90239
O     0.67621   1.04393  -1.63615
C    -0.30326   1.37387   0.42741
C    -1.13220   2.00404   1.49526
C    -2.08971  -0.44938  -0.35774
C    -2.96912   0.40590  -1.19804
C    -2.47603  -0.81267   1.03117
O    -1.20886  -1.12485  -1.02327
C    -0.18491  -1.93078  -0.62582
C     0.69859  -2.35798  -1.75862
C    -0.19100  -2.61935   0.58769
N    -0.08085  -3.22354   1.59311
H     2.43173  -1.27454   2.71079
H     3.24083  -0.19502   1.52710
H     2.26681  -1.59464   0.95548
H     2.37002   0.00034  -0.94343
H     3.29192   2.45302  -0.20873
H     1.15748   4.12163  -0.55977
H    -0.83787   2.50566  -1.45971
H    -1.15179   1.39303   2.40827
H    -2.17076   2.18631   1.17657
H    -0.70231   2.98865   1.76445
H    -3.95344  -0.07951  -1.33835
H    -2.51691   0.58125  -2.18292
H    -3.15912   1.36853  -0.69890
H    -2.95945  -1.80775   1.02243
H    -3.19886  -0.08585   1.42002
H    -1.61735  -0.86903   1.70996
H     1.62686  -2.79779  -1.36576
H     0.22665  -3.11080  -2.41929
H     0.97022  -1.49090  -2.38065
