45
Generated by autodE on: 2022-06-19. E = -943.490619 Ha
C    -3.08281  -2.97339  -0.47993
C    -2.72764  -1.84955  -1.11969
C    -3.71821  -0.96783  -1.82611
C    -1.29624  -1.36061  -1.13076
C    -0.22816  -2.39585  -0.90917
N     0.76578  -2.05537  -0.18339
C     0.56683  -0.65425   0.24673
C     0.92352  -0.54317   1.73223
O     0.18732  -0.10548   2.59199
O     2.16179  -0.96885   1.97650
C     2.62449  -0.87903   3.33285
C     1.47826   0.28823  -0.54248
C     1.80395   1.54709  -0.01215
C     2.56592   2.45576  -0.74787
C     3.01150   2.12203  -2.03129
C     2.68897   0.87314  -2.56714
C     1.92751  -0.03835  -1.82744
C    -0.95782  -0.35334   0.00364
C    -1.30878   1.06978  -0.28689
C    -2.02020   1.91308   0.48447
C    -2.61857   1.55983   1.81892
C    -2.25847   3.33401   0.04699
H    -4.12555  -3.30369  -0.45314
H    -2.35213  -3.59656   0.04463
H    -3.45812  -0.86843  -2.89410
H    -3.69502   0.05192  -1.40581
H    -4.74373  -1.35708  -1.74783
H    -1.09230  -0.88762  -2.11057
H    -0.27011  -3.39044  -1.36986
H     2.62400   0.16838   3.66755
H     3.64582  -1.27648   3.33001
H     1.98470  -1.47637   3.99812
H     1.44972   1.82912   0.98163
H     2.81017   3.42967  -0.31713
H     3.60793   2.83223  -2.60877
H     3.03165   0.60054  -3.56821
H     1.68684  -1.01011  -2.25901
H    -1.48036  -0.70198   0.90233
H    -0.92715   1.45355  -1.23919
H    -2.54406   0.49338   2.06411
H    -3.68309   1.84922   1.84713
H    -2.12046   2.12807   2.62421
H    -3.33928   3.54276  -0.04241
H    -1.77964   3.55540  -0.91836
H    -1.86866   4.04334   0.79862
