26
Generated by autodE on: 2022-06-22. E = -689.460879 Ha
C     2.93311  -1.44634   0.91311
O     1.54131  -1.73149   0.73931
C     0.65612  -0.80499   0.37424
C     0.84746   0.52212   0.13093
O     2.05624   1.14154   0.27598
C     2.72097   1.50076  -0.93977
C    -0.29469   1.38681  -0.23468
O    -0.11130   2.59092  -0.40530
C    -1.65834   0.79390  -0.38160
C    -2.77362   1.70858  -0.77865
C    -1.86056  -0.52582  -0.14358
C    -3.21157  -1.16046  -0.26463
C    -0.72356  -1.39619   0.25138
O    -0.87504  -2.58996   0.47205
H     3.38818  -2.40093   1.20627
H     3.38515  -1.09830  -0.02649
H     3.08776  -0.70144   1.70429
H     3.66155   1.98825  -0.65081
H     2.11592   2.19981  -1.53613
H     2.94425   0.60313  -1.54018
H    -3.24810   1.36167  -1.71151
H    -3.56374   1.71521  -0.00941
H    -2.41347   2.73368  -0.92385
H    -3.61454  -1.02833  -1.28224
H    -3.16828  -2.23247  -0.03933
H    -3.92937  -0.68297   0.42263
