47
Generated by autodE on: 2022-06-22. E = -1259.539822 Ha. Imaginary frequency = -168.9 cm-1
C    -1.92948  -1.52197   3.68907
N    -1.71650  -0.58181   2.61002
C    -1.92471  -0.88094   1.30864
O    -2.40809  -1.97210   0.93793
C    -1.53022   0.14153   0.32698
C    -2.00649   0.20705  -1.06181
O    -1.94437   1.26643  -1.71744
N    -2.48334  -0.94844  -1.57008
C    -2.73723  -1.13883  -2.98020
O    -0.93128   1.20752   0.89625
C    -0.28050   2.17128   0.32030
C     1.58090   1.04507  -0.64574
O     2.07308   1.95012  -1.52659
C     2.37758   3.30011  -1.16962
C     2.18197   0.94156   0.71466
O     3.02159   1.75837   1.08666
C     1.76934  -0.17115   1.61121
C     2.20774  -0.02577   3.03736
C     1.15412  -1.26506   1.09116
C     0.88641  -2.53401   1.83754
C     0.72477  -1.28753  -0.33876
O     0.27577  -2.31772  -0.84942
C     0.94184  -0.08191  -1.17153
O     0.56310  -0.27764  -2.43287
C     0.60010   0.71742  -3.46691
H    -2.44037  -2.40866   3.29660
H    -0.97533  -1.83537   4.14207
H    -2.55497  -1.07324   4.47627
H    -1.24437   0.29034   2.82233
H    -2.46040  -1.74790  -0.93484
H    -2.86873  -0.16454  -3.46581
H    -3.64990  -1.73466  -3.12953
H    -1.89728  -1.66361  -3.46674
H    -0.52595   2.45056  -0.70108
H     0.18324   2.85172   1.03593
H     1.74056   3.67204  -0.35723
H     2.19602   3.89998  -2.07281
H     3.42985   3.39581  -0.86987
H     1.69328  -0.73175   3.69974
H     2.01149   0.99749   3.39149
H     3.29386  -0.19148   3.13678
H    -0.13197  -2.89608   1.64305
H     1.56965  -3.32012   1.47273
H     1.03521  -2.42772   2.91698
H     1.63306   0.89284  -3.79346
H     0.01771   0.28684  -4.29132
H     0.13656   1.65292  -3.13950
