57
Generated by autodE on: 2022-06-04. E = -1241.434661 Ha
C    -0.43323  -6.62816   4.15395
N    -1.05421  -6.18823   2.91954
C    -1.35760  -4.90041   2.70921
O    -1.20953  -4.04221   3.59056
C    -1.97122  -4.50579   1.34395
C    -2.01788  -5.66462   0.33674
N    -3.32466  -3.98901   1.61896
C    -3.50843  -2.69604   0.90263
C    -4.32876  -2.97556  -0.36970
C    -4.21565  -1.73371   1.86585
C    -3.60871  -1.44403   3.10059
C    -4.22166  -0.59731   4.02501
C    -5.46289  -0.02068   3.73427
C    -6.08121  -0.30769   2.51567
C    -5.46406  -1.15932   1.59203
C    -2.06317  -2.25852   0.52189
C    -1.23182  -3.28795   0.78048
C     0.22782  -3.43398   0.43532
F     0.95533  -2.37120   0.94136
F     0.74369  -4.51544   1.13701
C     0.54634  -3.67103  -1.04938
C    -0.48958  -3.19849  -2.07183
C    -0.57459  -1.68369  -2.28723
C    -0.53482  -0.80723  -1.03405
C    -1.71812  -0.85804  -0.02616
C    -2.91082  -0.16637  -0.71481
C    -1.30053   0.01972   1.18082
H    -1.02921  -6.31274   5.02320
H    -0.36369  -7.72280   4.14844
H     0.58005  -6.20785   4.26672
H    -1.13153  -6.84636   2.15363
H    -1.01680  -6.06180   0.11574
H    -2.46026  -5.31921  -0.60619
H    -2.65046  -6.47946   0.71955
H    -3.37129  -3.78808   2.61424
H    -4.57261  -2.07259  -0.93780
H    -3.76580  -3.64840  -1.03050
H    -5.26733  -3.47727  -0.09439
H    -2.64014  -1.88710   3.33949
H    -3.72555  -0.38369   4.97491
H    -5.94473   0.64470   4.45459
H    -7.05354   0.13045   2.27748
H    -5.96923  -1.36449   0.64856
H     0.65621  -4.76016  -1.14834
H     1.53782  -3.23068  -1.24378
H    -0.23675  -3.67093  -3.03469
H    -1.47305  -3.60249  -1.79307
H     0.28310  -1.37650  -2.91058
H    -1.47403  -1.46113  -2.88517
H    -0.48370   0.24227  -1.36650
H     0.40914  -0.97990  -0.50778
H    -3.20005  -0.66963  -1.64739
H    -2.61416   0.86170  -0.97296
H    -3.79285  -0.09914  -0.06783
H    -0.47911  -0.45052   1.73921
H    -2.13750   0.18819   1.87004
H    -0.95773   1.00245   0.81883
