26
Generated by autodE on: 2022-06-04. E = -589.393201 Ha
C    -1.75810  -2.81604   0.16091
C    -0.47177  -2.05207  -0.19002
C     0.74145  -2.99790  -0.11194
C    -0.26143  -0.89648   0.68078
C     0.00009   0.20886   1.11066
C     0.32680   1.61444   0.87344
F     1.18609   2.12077   1.81763
F    -0.81608   2.38073   0.98079
C     0.93106   1.78635  -0.51524
C     0.14086   1.13304  -1.66528
C     0.44026  -0.35250  -2.01689
C    -0.59787  -1.42237  -1.61713
H    -1.68105  -3.27848   1.15677
H    -1.92742  -3.61451  -0.57808
H    -2.63135  -2.14649   0.15382
H     0.58999  -3.84533  -0.79834
H     1.67210  -2.48378  -0.39332
H     0.86250  -3.39451   0.90742
H     1.95524   1.38433  -0.47298
H     1.01011   2.87388  -0.67490
H     0.36561   1.73203  -2.56049
H    -0.93879   1.27107  -1.48569
H     1.43639  -0.63131  -1.63394
H     0.52759  -0.40819  -3.11291
H    -1.60862  -0.99293  -1.71365
H    -0.54539  -2.26347  -2.32814
