31
Generated by autodE on: 2022-06-04. E = -651.948348 Ha
C     4.73532  -0.01374   1.70533
N     3.94036  -0.08883   0.49842
C     2.58014  -0.09790   0.54969
O     1.99302  -0.12875   1.66744
C     1.82713  -0.08517  -0.69181
C     2.43149  -0.12479  -2.05919
N     0.49442  -0.02378  -0.43609
C    -0.64927   0.05457  -1.10860
C    -0.70300   0.09845  -2.60549
C    -1.88788   0.07023  -0.32668
C    -3.12882  -0.18906  -0.95566
C    -4.32210  -0.18940  -0.23202
C    -4.32341   0.07143   1.14128
C    -3.10612   0.33793   1.78128
C    -1.91208   0.34226   1.06480
H     4.46487  -0.81939   2.40437
H     5.79504  -0.12326   1.44105
H     4.60606   0.94569   2.23741
H     4.39880   0.10169  -0.38354
H     3.45908  -0.51223  -2.01306
H     2.47702   0.86291  -2.55322
H     1.87852  -0.80157  -2.72734
H     0.39741  -0.06692   0.59126
H     0.21560   0.50749  -3.03750
H    -0.86416  -0.90237  -3.04499
H    -1.53734   0.73294  -2.93697
H    -3.16084  -0.41119  -2.02268
H    -5.26104  -0.40082  -0.74997
H    -5.25823   0.07322   1.70611
H    -3.08716   0.55802   2.85158
H    -0.99362   0.58957   1.60270
