31
Generated by autodE on: 2022-07-27. E = -651.948387 Ha
C     3.12219  -3.82113   1.05944
N     2.24263  -3.28246   0.04488
C     1.52228  -2.14809   0.25943
O     1.55445  -1.58248   1.38803
C     0.71433  -1.61723  -0.82366
C     0.55925  -2.26385  -2.16305
N     0.12097  -0.45413  -0.44979
C    -0.66153   0.47968  -0.98163
C    -1.13201   0.41799  -2.40323
C    -1.08289   1.58218  -0.11425
C    -0.44333   1.87915   1.11596
C    -0.87789   2.92836   1.92184
C    -1.96000   3.72844   1.53294
C    -2.59822   3.45818   0.31899
C    -2.16921   2.40695  -0.49230
H     2.58152  -3.98161   2.00460
H     3.51440  -4.78649   0.71463
H     3.97664  -3.15481   1.27437
H     2.32369  -3.64224  -0.89771
H     1.19172  -1.81403  -2.94998
H     0.82386  -3.32909  -2.10460
H    -0.48208  -2.22457  -2.51478
H     0.37055  -0.30989   0.54203
H    -0.43876  -0.14000  -3.04044
H    -2.12642  -0.05487  -2.49364
H    -1.21984   1.43226  -2.81769
H     0.42543   1.30531   1.44754
H    -0.35652   3.13155   2.86060
H    -2.29534   4.55293   2.16598
H    -3.44556   4.06941  -0.00194
H    -2.69897   2.21291  -1.42533
