57
Generated by autodE on: 2022-06-04. E = -1241.342069 Ha. Imaginary frequency = -254.3 cm-1
C    -0.03507  -6.94597   3.71488
N    -1.00495  -6.53076   2.72087
C    -1.74670  -5.41366   2.91615
O    -1.80398  -4.86317   4.03761
C    -2.48374  -4.84621   1.75931
C    -2.81841  -5.67597   0.54407
N    -3.30755  -3.85197   2.19933
C    -3.96497  -2.88045   1.55376
C    -4.67799  -3.12029   0.25344
C    -4.40238  -1.75233   2.40323
C    -3.62707  -1.33124   3.50630
C    -4.02220  -0.25149   4.29248
C    -5.19947   0.44707   3.99659
C    -5.97604   0.04523   2.90661
C    -5.58476  -1.04018   2.11952
C    -1.66021  -2.29381   0.48485
C    -1.03962  -3.31661   0.84262
C     0.26676  -3.99130   0.81501
F     0.72180  -4.23812   2.10070
F     0.13875  -5.25574   0.24446
C     1.35951  -3.24410   0.06909
C     0.93030  -2.76512  -1.32696
C     0.71770  -1.24927  -1.45240
C    -0.16757  -0.53594  -0.42250
C    -1.64798  -0.99673  -0.26099
C    -2.30472  -1.18672  -1.64248
C    -2.40163   0.10632   0.50099
H    -0.51173  -7.03760   4.70027
H     0.37389  -7.92417   3.43040
H     0.79672  -6.22527   3.80095
H    -0.78689  -6.76766   1.75963
H    -2.61551  -5.15494  -0.39994
H    -3.88348  -5.96002   0.55718
H    -2.24124  -6.60743   0.52423
H    -3.06238  -3.64497   3.17471
H    -4.12938  -3.78226  -0.41873
H    -5.67164  -3.56794   0.44076
H    -4.84576  -2.17112  -0.26853
H    -2.67915  -1.82517   3.73139
H    -3.39729   0.05923   5.13321
H    -5.50355   1.29974   4.60794
H    -6.89846   0.57907   2.66522
H    -6.21105  -1.33497   1.27745
H     1.66282  -2.39896   0.70462
H     2.21762  -3.93170   0.01738
H     1.70227  -3.05316  -2.05746
H     0.02010  -3.30409  -1.63311
H     0.33846  -1.04024  -2.46610
H     1.70793  -0.76301  -1.40161
H    -0.18922   0.53046  -0.70563
H     0.30493  -0.57242   0.57287
H    -2.17433  -0.27195  -2.24287
H    -3.38177  -1.37632  -1.54467
H    -1.86086  -2.02691  -2.19511
H    -1.97593   0.26122   1.50420
H    -3.46317  -0.14205   0.61898
H    -2.32981   1.05570  -0.05276
