25
Generated by autodE on: 2022-06-18. E = -573.226742 Ha
C     3.19088  -1.57328  -0.77152
C     2.81092  -0.27583  -0.08554
O     3.68768   0.53089   0.25977
C     1.39085  -0.10765   0.09747
N     0.78793   0.92240   0.72455
C     1.59803   1.97238   1.37871
N    -0.48515   1.10771   0.87581
C    -1.39034   0.27384   0.19480
C    -1.38560   0.11971  -1.20706
C    -2.39348  -0.61255  -1.83262
C    -3.41193  -1.21083  -1.07994
C    -3.42326  -1.05547   0.30919
C    -2.42705  -0.30985   0.94319
H     2.67451  -1.66980  -1.74009
H     4.27730  -1.60326  -0.92722
H     2.88560  -2.43472  -0.15487
H     0.72761  -0.87424  -0.29421
H     0.89483   2.63770   1.88643
H     2.29450   1.51156   2.08667
H     2.17195   2.51176   0.61743
H    -0.60061   0.58764  -1.80401
H    -2.38499  -0.71537  -2.92048
H    -4.19504  -1.78814  -1.57635
H    -4.21668  -1.51180   0.90594
H    -2.43739  -0.16863   2.02577
