14
Generated by autodE on: 2022-06-18. E = -270.687343 Ha
C    -1.06766  -1.55410   0.50549
C    -0.96911  -0.13633   0.02717
C    -2.28531   0.53265  -0.22917
C     0.19275   0.53864  -0.17717
C     1.52936   0.00947   0.02936
O     2.55324   0.65819  -0.17220
H    -0.10198  -2.03588   0.69646
H    -1.66684  -1.58804   1.43122
H    -1.61853  -2.15422  -0.23861
H    -2.16833   1.56804  -0.57758
H    -2.85890  -0.03645  -0.98127
H    -2.89737   0.52983   0.68938
H     0.15645   1.57487  -0.52989
H     1.60859  -1.04094   0.38872
