39
Generated by autodE on: 2022-06-18. E = -843.897952 Ha. Imaginary frequency = -413.4 cm-1
C    -1.78965  -1.92811   1.41399
C    -2.36889  -1.62121   0.06299
O    -3.48283  -2.03036  -0.25479
C    -1.63763  -0.78917  -0.93688
N    -0.24943  -0.77321  -0.96213
C     0.41091  -0.64991  -2.27504
N     0.29548  -0.43906   0.16767
C     1.66719  -0.43832   0.38573
C     2.10066   0.31150   1.50456
C     3.44581   0.33624   1.86390
C     4.38657  -0.40487   1.14080
C     3.96104  -1.18184   0.05744
C     2.62157  -1.20092  -0.32771
C    -1.07223   1.57010   0.34106
C     0.06709   2.32437  -0.06869
O     0.87235   2.87932   0.70182
C    -2.11239   1.11432  -0.52659
C    -2.18640   1.68637  -1.93868
C    -3.48896   1.02713   0.11475
H    -2.48600  -2.58531   1.95168
H    -1.63142  -0.99841   1.97944
H    -0.80472  -2.40871   1.32307
H    -2.07101  -0.92512  -1.92811
H    -0.33955  -0.36081  -3.01718
H     0.84797  -1.60922  -2.58148
H     1.19513   0.11526  -2.21912
H     1.36373   0.87432   2.07421
H     3.76034   0.93175   2.72422
H     5.44003  -0.39143   1.42858
H     4.68106  -1.78948  -0.49593
H     2.32031  -1.84535  -1.15000
H    -1.22526   1.48387   1.42051
H     0.22958   2.41202  -1.16681
H    -1.22990   1.65068  -2.47458
H    -2.50066   2.74219  -1.88871
H    -2.93413   1.14501  -2.53625
H    -3.44643   0.61708   1.13376
H    -4.17777   0.41442  -0.48262
H    -3.91465   2.04245   0.17840
