40
Generated by autodE on: 2022-05-29. E = -990.493765 Ha
C     4.95317   1.68903  -0.51730
N     3.98960   1.10109   0.39570
C     2.67538   1.29999   0.26482
O     2.19745   2.04718  -0.60342
C     1.77437   0.52422   1.23566
N     0.57135   1.26827   1.59277
C    -0.61658   0.62673   1.04486
C    -1.58896   0.39355   2.14265
N    -2.28469   0.22375   3.05561
C    -1.37999   1.38138  -0.08164
O    -2.60628   1.26741  -0.16932
N    -0.61776   2.06446  -0.93534
C    -1.19389   2.72889  -2.08873
C    -0.08628  -0.68930   0.45376
C    -0.96164  -1.64241  -0.25797
C    -0.63673  -2.01624  -1.57576
C    -1.45130  -2.89686  -2.29041
C    -2.60930  -3.41475  -1.70293
C    -2.94590  -3.04567  -0.39662
C    -2.13273  -2.16603   0.32034
C     1.25452  -0.72885   0.56627
C     2.19297  -1.79664   0.11578
H     4.90096   2.78827  -0.48949
H     5.96054   1.37381  -0.22086
H     4.76658   1.36401  -1.55286
H     4.31525   0.47620   1.12674
H     2.37557   0.25911   2.12397
H     0.62116   2.25907   1.37258
H     0.40640   2.06282  -0.81349
H    -1.65053   2.00454  -2.78278
H    -0.40009   3.27213  -2.61604
H    -1.97386   3.44410  -1.78519
H     0.25374  -1.59496  -2.04589
H    -1.18369  -3.17255  -3.31319
H    -3.24942  -4.10146  -2.26178
H    -3.84813  -3.44756   0.07039
H    -2.40404  -1.89801   1.34146
H     1.66596  -2.73189  -0.11497
H     2.94819  -1.99389   0.89404
H     2.74132  -1.48382  -0.78883
