23
Generated by autodE on: 2022-05-29. E = -642.535380 Ha
C     4.94487  -0.06269   0.71484
N     3.75011  -0.29390  -0.07156
C     2.52473  -0.01265   0.40647
O     2.32441   0.46631   1.53571
C     1.40225  -0.30635  -0.49923
N     0.21169  -0.03025  -0.03723
C    -1.03754  -0.15220  -0.54987
C    -1.23838  -0.67337  -1.83738
N    -1.41755  -1.10580  -2.90962
C    -2.10534   0.30130   0.35538
O    -1.81017   0.74497   1.48088
N    -3.37636   0.21676  -0.08220
C    -4.49106   0.62527   0.74939
H     5.82268  -0.32676   0.11344
H     4.94518  -0.67447   1.63150
H     5.02340   0.99427   1.01440
H     3.83481  -0.69034  -1.00236
H     1.52382  -0.72688  -1.49824
H     0.19638   0.36764   0.92153
H    -3.56520  -0.16510  -1.00322
H    -4.54751   0.02512   1.67195
H    -4.40646   1.68440   1.03962
H    -5.42092   0.48872   0.18442
