40
Generated by autodE on: 2022-05-29. E = -990.405450 Ha. Imaginary frequency = -368.0 cm-1
C     5.54075   1.39987   0.90578
N     4.17354   1.18201   1.33589
C     3.13353   1.37980   0.50901
O     3.24295   1.87536  -0.62191
C     1.80240   0.94319   1.01809
N     0.76455   1.52845   0.39803
C    -0.51691   1.10181   0.53041
C    -1.00805   0.66260   1.77874
N    -1.45669   0.28733   2.79035
C    -1.40969   1.40685  -0.60752
O    -0.95146   1.95877  -1.62108
N    -2.69388   1.01692  -0.49985
C    -3.60568   1.11063  -1.62321
C     0.31405  -1.23802   0.09267
C    -0.93435  -1.74837  -0.36893
C    -1.26432  -1.67836  -1.74235
C    -2.49518  -2.14444  -2.19802
C    -3.42878  -2.67555  -1.29995
C    -3.11408  -2.74714   0.06166
C    -1.87935  -2.29572   0.52857
C     1.51671  -1.06452   0.39911
C     2.84847  -1.70169   0.53055
H     6.20586   1.31995   1.77407
H     5.85013   0.65712   0.15097
H     5.64964   2.40085   0.46419
H     4.00652   0.70119   2.21449
H     1.69232   0.67803   2.07176
H     0.96854   1.91516  -0.53170
H    -2.96540   0.44066   0.29119
H    -3.16491   0.67056  -2.53029
H    -4.52469   0.56598  -1.37690
H    -3.86351   2.15949  -1.84054
H    -0.54881  -1.23630  -2.43792
H    -2.73399  -2.08251  -3.26229
H    -4.39626  -3.03256  -1.65989
H    -3.83650  -3.16283   0.76828
H    -1.63774  -2.34985   1.59068
H     2.77965  -2.78381   0.34025
H     3.26500  -1.55211   1.53873
H     3.56501  -1.27027  -0.18635
