37
Generated by autodE on: 2022-06-17. E = -788.619002 Ha
C     4.20281   0.45921   2.11951
O     2.90981   0.34208   1.50544
C     2.89088   0.17593   0.18419
O     3.89022   0.10163  -0.50509
C     1.50586   0.09766  -0.38127
N     0.53041   0.69066   0.19015
C    -0.66920   0.56449  -0.66945
C    -0.77088   1.87647  -1.47068
C    -1.92272   0.37157   0.17269
C    -3.18459   0.34816  -0.44516
C    -4.34555   0.14278   0.30275
C    -4.26811  -0.04164   1.68793
C    -3.01865  -0.02257   2.31174
C    -1.85646   0.18082   1.55909
C    -0.34813  -0.64565  -1.62127
C    -0.85258  -1.98758  -1.09309
C     1.20314  -0.57585  -1.70425
C     1.94730  -1.88192  -1.97734
H     4.73503   1.33792   1.72746
H     4.01707   0.57464   3.19336
H     4.80023  -0.44431   1.93008
H    -0.86311   2.73452  -0.78848
H     0.12403   2.02253  -2.09399
H    -1.64881   1.86015  -2.13075
H    -3.26261   0.47913  -1.52664
H    -5.31628   0.12521  -0.19893
H    -5.17621  -0.20133   2.27426
H    -2.94317  -0.16810   3.39237
H    -0.88407   0.19265   2.05132
H    -0.79162  -0.46299  -2.61082
H    -0.54536  -2.80980  -1.75532
H    -1.94960  -2.00108  -1.03726
H    -0.46430  -2.20015  -0.08436
H     1.48424   0.14686  -2.49125
H     1.84001  -2.59753  -1.14871
H     1.56154  -2.35802  -2.89156
H     3.01940  -1.69220  -2.12297
