12
Generated by autodE on: 2022-06-17. E = -157.299005 Ha
C     1.55975  -0.57732   0.24125
C     0.66542   0.62280   0.15007
C    -0.65710   0.64421  -0.07993
C    -1.56700  -0.52670  -0.30240
H     1.02345  -1.52607   0.09683
H     2.36521  -0.52392  -0.51247
H     2.06294  -0.61745   1.22354
H     1.16663   1.58905   0.29005
H    -1.14557   1.62646  -0.11193
H    -1.04278  -1.49238  -0.26652
H    -2.37071  -0.54788   0.45480
H    -2.07194  -0.45003  -1.28159
