25
Generated by autodE on: 2022-06-17. E = -631.231048 Ha
C     4.08339   1.45862   0.27629
O     2.85969   0.91297  -0.24565
C     2.77379  -0.42307  -0.29923
O     3.64779  -1.19006   0.06042
C     1.54046  -0.84449  -0.96883
N     0.47394  -1.10639  -0.42271
C    -0.70840  -1.31954   0.01976
C    -1.09744  -2.70781   0.44453
C    -1.65250  -0.18852   0.09224
C    -1.23625   1.12846  -0.19469
C    -2.14136   2.18601  -0.13470
C    -3.47670   1.95571   0.21863
C    -3.89699   0.65569   0.51342
C    -2.99574  -0.40917   0.45328
H     3.97439   2.54757   0.21712
H     4.93996   1.12869  -0.32903
H     4.22974   1.14888   1.32105
H    -1.44720  -2.71181   1.48887
H    -0.24466  -3.39258   0.35344
H    -1.92181  -3.08581  -0.18177
H    -0.19356   1.32492  -0.45188
H    -1.80139   3.19976  -0.35906
H    -4.18343   2.78721   0.26807
H    -4.93609   0.46561   0.79223
H    -3.34387  -1.41688   0.68228
