43
Generated by autodE on: 2022-06-20. E = -867.265316 Ha
C     0.57098   2.77227   0.24608
C    -0.27140   1.64102  -0.28779
O    -1.31740   1.89348  -0.87016
C     0.11526   0.17482   0.03946
C     1.62039  -0.00855   0.14214
C     2.20399  -0.76510   1.16747
C     3.58518  -0.97629   1.20330
C     4.40742  -0.43825   0.20925
C     3.83533   0.31398  -0.82129
C     2.45498   0.52637  -0.85214
N    -0.59968  -0.14861   1.28991
C    -0.40596   0.69325   2.45850
C    -2.01116  -0.41610   0.98021
C    -2.64047  -1.43031   1.92835
C    -2.02190  -0.85423  -0.49832
C    -3.01585  -0.08414  -1.32702
O    -4.02441   0.42765  -0.87667
C    -0.53494  -0.85058  -0.96651
C    -0.30767  -0.51203  -2.44237
C     0.03287  -2.26041  -0.72404
H     1.26044   2.47086   1.04208
H    -0.09571   3.57578   0.59122
H     1.17405   3.17163  -0.58607
H     1.56811  -1.19938   1.93811
H     4.01991  -1.56767   2.01295
H     5.48713  -0.60326   0.23715
H     4.46560   0.73947  -1.60588
H     2.02643   1.11807  -1.66323
H    -0.94154   1.66335   2.39902
H    -0.77951   0.17079   3.35187
H     0.66062   0.89578   2.61955
H    -2.59271   0.52334   1.06065
H    -3.69710  -1.57877   1.65704
H    -2.12463  -2.40150   1.86729
H    -2.60950  -1.08359   2.97251
H    -2.40019  -1.89028  -0.58710
H    -2.84195  -0.09086  -2.42574
H    -0.86226  -1.21979  -3.07800
H     0.75790  -0.62284  -2.69111
H    -0.61782   0.50408  -2.71218
H    -0.06332  -2.56575   0.32646
H    -0.52619  -2.98080  -1.34098
H     1.09256  -2.32412  -1.00778
