29
Generated by autodE on: 2022-07-27. E = -596.535333 Ha
C    -3.71432  -1.15145   0.86776
C    -2.57139  -0.68877   0.04627
N    -1.42502  -0.32538   0.54326
C    -1.20433  -0.42717   1.99733
C    -0.44669   0.35354  -0.25187
C    -0.93285   1.36937  -1.11405
C     0.04626   2.15713  -1.97216
O    -2.15614   1.67038  -1.22927
C     0.93993  -0.07749  -0.04429
C     1.21842  -1.44576   0.19363
C     2.51882  -1.90077   0.41110
C     3.59609  -1.00806   0.38916
C     3.34309   0.35012   0.16799
C     2.04049   0.81087  -0.03053
H    -3.98639  -0.40456   1.63279
H    -4.58532  -1.34685   0.23038
H    -3.45885  -2.07958   1.40886
H    -2.65970  -0.64487  -1.03822
H    -1.90315   0.24584   2.51537
H    -1.37510  -1.45555   2.34095
H    -0.17908  -0.12724   2.22757
H    -0.48932   2.48071  -2.87654
H     0.38574   3.06432  -1.44528
H     0.93587   1.58305  -2.26280
H     0.39567  -2.16459   0.19747
H     2.69322  -2.96541   0.58827
H     4.61610  -1.36366   0.55220
H     4.16880   1.06670   0.17058
H     1.87266   1.88099  -0.14717
