49
Generated by autodE on: 2022-10-07. E = -1294.382324 Ha
C    -2.46672  -3.20393   0.28226
N    -2.07439  -1.85473  -0.07950
C    -1.22568  -1.15868   0.67677
O    -0.77825  -1.54802   1.75773
C    -0.75506   0.24788   0.17450
C    -1.47911   1.33676   0.93599
C    -2.87652   1.30050   1.04282
C    -3.55809   2.33085   1.69400
C    -2.84954   3.39884   2.25165
C    -1.45576   3.43242   2.15272
C    -0.77021   2.40848   1.49461
O     0.65071   0.32191   0.46476
C     1.34912  -0.39140  -0.51384
C     2.69132   0.31050  -0.80315
O     3.04449   0.55189  -1.93428
O     3.32349   0.59773   0.30616
C     4.58989   1.28388   0.18315
C     1.52831  -1.88830  -0.12962
O     1.05011  -2.77487  -0.80141
O     2.20944  -2.01065   0.97827
C     2.32332  -3.33922   1.53656
N     0.49645  -0.34608  -1.74096
C    -0.71942   0.52771  -1.38766
N    -0.34827   1.86631  -1.73008
N    -1.87481   0.05806  -2.08688
C    -1.86524   0.23204  -3.54467
H    -1.61103  -3.89558   0.20811
H    -2.84470  -3.23323   1.31416
H    -3.25728  -3.53948  -0.39995
H    -2.26168  -1.48070  -1.01667
H    -3.43979   0.46595   0.62116
H    -4.64692   2.29277   1.76983
H    -3.38262   4.20155   2.76610
H    -0.89468   4.26102   2.59052
H     0.31664   2.43771   1.41967
H     4.43996   2.24865  -0.32009
H     5.29328   0.66380  -0.38870
H     4.94547   1.43088   1.20799
H     2.77872  -4.01698   0.80270
H     1.32248  -3.69436   1.81778
H     2.96122  -3.23415   2.41988
H     0.22020  -1.31537  -1.98681
H     1.03182   0.05572  -2.52979
H    -1.16872   2.46987  -1.66551
H     0.36344   2.24563  -1.10312
H    -2.69205   0.52413  -1.68570
H    -2.79890  -0.18543  -3.94435
H    -1.03101  -0.33417  -3.98384
H    -1.78067   1.28296  -3.86156
