36
Generated by autodE on: 2022-10-07. E = -1049.078524 Ha
C    -1.76606  -2.82313   0.99917
N    -1.12920  -1.94742   1.96639
C    -0.48083  -0.81005   1.69637
O     0.26284  -0.21646   2.48036
C    -0.77700  -0.07382   0.40177
O     0.18716   0.38581  -0.30982
C     1.53215   0.13254  -0.33131
C     1.97937  -1.19344   0.00116
O     1.21174  -2.11675   0.27514
O     3.31283  -1.36171  -0.04343
C     3.79058  -2.68888   0.20273
C     2.29319   1.16331  -1.00318
O     3.50226   1.14959  -1.19944
O     1.51611   2.20448  -1.39573
C     2.18787   3.27068  -2.07020
C    -2.09230   0.42926   0.06288
C    -3.20940   0.18218   0.89352
C    -4.46088   0.68347   0.54740
C    -4.62137   1.43101  -0.62414
C    -3.51979   1.68355  -1.45382
C    -2.26568   1.18938  -1.11952
H    -1.82231  -2.33631   0.01913
H    -2.78474  -3.08273   1.32176
H    -1.18120  -3.74846   0.88357
H    -0.91767  -2.34113   2.88208
H     4.88344  -2.63109   0.13422
H     3.49272  -3.03175   1.20462
H     3.40340  -3.39174  -0.54982
H     2.65571   2.91651  -3.00115
H     2.96127   3.71708  -1.42742
H     1.41670   4.01597  -2.29987
H    -3.09591  -0.39026   1.81319
H    -5.31686   0.49141   1.19714
H    -5.60656   1.81808  -0.89348
H    -3.64618   2.26620  -2.36853
H    -1.40727   1.38044  -1.76362
