13
Generated by autodE on: 2022-10-07. E = -245.298496 Ha
C     1.92011   0.33395   0.33471
N     0.70903   0.43062  -0.46192
C    -0.46814  -0.07783  -0.09062
N    -1.53421   0.06286  -0.88464
N    -0.58888  -0.71590   1.07554
H     2.72557   0.84924  -0.20019
H     2.22033  -0.71526   0.48778
H     1.79365   0.81441   1.31802
H     0.75212   0.89675  -1.36269
H    -2.42184  -0.35812  -0.63374
H    -1.45026   0.52528  -1.78313
H    -1.47999  -1.11640   1.34782
H     0.20890  -0.85697   1.68373
