49
Generated by autodE on: 2022-10-07. E = -1294.327274 Ha. Imaginary frequency = -412.7 cm-1. Additional imaginary frequencies: [Frequency(-12.74982 cm^-1)] cm-1
C    -2.82503  -3.26782   0.69207
N    -2.25115  -2.00661   1.11358
C    -1.09325  -1.54026   0.58804
O    -0.40469  -2.29826  -0.15695
C    -0.69003  -0.17902   0.85254
C    -1.46822   0.92900   1.36041
C    -2.87292   1.00854   1.16573
C    -3.59101   2.13996   1.55165
C    -2.94717   3.23721   2.13395
C    -1.56057   3.18432   2.31459
C    -0.83130   2.05885   1.93418
O     0.68408   0.10935   0.79504
C     1.47702  -0.28583  -0.17562
C     2.67407   0.64772  -0.37233
O     3.69658   0.27654  -0.89899
O     2.41617   1.87773   0.04289
C     3.45727   2.86300  -0.13330
C     1.95355  -1.74413  -0.18920
O     2.29426  -2.27769   0.83909
O     2.09668  -2.22328  -1.41236
C     2.57348  -3.57729  -1.52188
N     0.44266  -0.15490  -1.66290
C    -0.59315   0.81136  -1.57132
N    -0.23231   2.05629  -1.26765
N    -1.81881   0.54513  -2.01971
C    -2.34439  -0.74296  -2.44081
H    -2.17700  -4.11920   0.95533
H    -2.98336  -3.29153  -0.39905
H    -3.79368  -3.39765   1.19055
H    -2.76296  -1.43401   1.77351
H    -3.40629   0.19239   0.67931
H    -4.67041   2.16575   1.38089
H    -3.51493   4.12046   2.43447
H    -1.03532   4.03325   2.76022
H     0.24866   2.04500   2.07929
H     4.35138   2.55802   0.42675
H     3.04868   3.79693   0.26575
H     3.69540   2.96420  -1.20080
H     2.62805  -3.78991  -2.59489
H     1.86553  -4.25810  -1.02900
H     3.56594  -3.66701  -1.05937
H     0.07463  -1.12078  -1.70572
H     1.09712   0.01746  -2.43923
H     0.64488   2.23002  -0.77698
H    -0.96273   2.75368  -1.14286
H    -2.51606   1.24775  -1.77249
H    -1.57119  -1.33721  -2.94299
H    -2.75057  -1.31156  -1.59203
H    -3.15377  -0.56265  -3.15950
