28
Generated by autodE on: 2022-06-16. E = -591.739605 Ha
C     3.02246   0.35449   0.23162
C     1.95465  -0.39322  -0.52241
O     2.13684  -1.52726  -0.98923
N     0.76372   0.23749  -0.69371
N    -0.32381  -0.50774  -1.23445
C    -1.33067  -0.49122  -0.15887
C    -2.69252  -0.95632  -0.65849
C    -0.88360  -1.34880   0.96698
N    -0.49199  -2.03139   1.82093
C    -1.27117   1.00217   0.25503
C    -1.86081   1.34908   1.61170
C     0.22931   1.36108   0.10327
C     0.45170   2.72080  -0.54229
H     2.81298   0.30028   1.31282
H     3.07244   1.41498  -0.04906
H     3.98920  -0.12671   0.03766
H     0.03914  -1.44783  -1.42107
H    -2.64752  -2.00328  -0.99276
H    -3.44193  -0.87666   0.14181
H    -2.99796  -0.32323  -1.50328
H    -1.83092   1.53129  -0.53145
H    -1.33401   0.82794   2.42636
H    -1.77954   2.43134   1.79412
H    -2.92715   1.08013   1.65946
H     0.71127   1.33562   1.09128
H    -0.03552   3.50202   0.06173
H     0.01982   2.74374  -1.55457
H     1.52257   2.96270  -0.61116
