16
Generated by autodE on: 2022-06-16. E = -434.383813 Ha
C     3.23889   0.36458   0.95383
C     2.04117   0.10406   0.08833
O     2.14755  -0.19464  -1.10964
N     0.82638   0.21960   0.73468
N    -0.15778  -0.03640  -0.10522
C    -1.43140  -0.00347   0.20477
C    -1.88291   0.34084   1.58126
C    -2.35421  -0.30794  -0.83502
N    -3.13827  -0.55212  -1.66065
H     2.95378   0.67502   1.96647
H     3.84823  -0.55221   1.00794
H     3.86294   1.14115   0.48447
H     0.13829  -0.27460  -1.07381
H    -2.97645   0.31454   1.65183
H    -1.44830  -0.36843   2.30456
H    -1.51876   1.34571   1.85147
