16
Generated by autodE on: 2022-07-27. E = -434.383445 Ha
C     3.12379   0.71294   0.31711
C     1.86490   0.47772  -0.46628
O     1.83786   0.56245  -1.70448
N     0.76461   0.16022   0.29550
N    -0.28624  -0.03535  -0.48542
C    -1.49457  -0.34901  -0.09759
C    -2.60846  -0.54729  -1.06897
C    -1.72367  -0.49934   1.30350
N    -1.97149  -0.63446   2.43204
H     3.53526   1.70005   0.05416
H     2.95092   0.65653   1.39889
H     3.87418  -0.03956   0.02496
H    -0.10432   0.07889  -1.50364
H    -2.25554  -0.37799  -2.09550
H    -3.43262   0.14963  -0.84870
H    -3.00611  -1.57142  -0.98589
