28
Generated by autodE on: 2022-06-16. E = -591.662352 Ha. Imaginary frequency = -384.4 cm-1
C     3.30171   0.29469  -0.02802
C     2.12795  -0.22975  -0.80906
O     2.20095  -0.47936  -2.01869
N     0.98747  -0.41274  -0.06410
N    -0.05884  -0.81572  -0.79703
C    -1.25766  -0.80243  -0.16804
C    -2.50595  -0.97210  -0.98797
C    -1.25106  -1.42123   1.13390
N    -1.29500  -1.94086   2.17301
C    -1.27992   1.24976   0.54225
C    -1.97672   1.23879   1.87991
C     0.06654   1.62050   0.43216
C     0.55759   2.33289  -0.79129
H     3.00573   0.68417   0.95415
H     3.81450   1.07383  -0.61054
H     4.01867  -0.53003   0.12228
H    -0.04659  -0.58741  -1.79918
H    -2.67926  -2.03428  -1.22548
H    -3.37446  -0.60171  -0.42624
H    -2.41686  -0.40375  -1.92464
H    -1.91307   1.52899  -0.30729
H    -1.31607   0.87148   2.67937
H    -2.29092   2.26199   2.14930
H    -2.88452   0.61568   1.86983
H     0.65725   1.71106   1.34737
H     0.09857   3.33633  -0.84888
H     0.25836   1.80304  -1.71265
H     1.64755   2.46612  -0.79913
