23
Generated by autodE on: 2022-06-18. E = -351.521382 Ha
C    -3.46751   1.50060   0.15533
C    -2.39069   0.80132   0.57642
C    -2.37158   0.12935   1.92562
C    -1.21346   0.68690  -0.28223
C    -0.07309   0.01819   0.02323
C     1.06700  -0.06292  -0.86693
C     2.24043  -0.70447  -0.63618
C     3.33541  -0.69723  -1.66515
C     2.56300  -1.45986   0.62182
H    -4.36126   1.60248   0.77717
H    -3.47828   1.98752  -0.82471
H    -3.31473   0.29323   2.46570
H    -2.21360  -0.95744   1.82614
H    -1.54519   0.51110   2.54797
H    -1.27799   1.19301  -1.25303
H    -0.00062  -0.48850   0.98933
H     0.95502   0.45506  -1.82717
H     4.25920  -0.25500  -1.25053
H     3.59878  -1.72789  -1.96379
H     3.05476  -0.13435  -2.56746
H     2.81012  -2.50961   0.38401
H     3.46307  -1.03570   1.10111
H     1.75051  -1.45877   1.35971
