19
Generated by autodE on: 2022-07-27. E = -568.935239 Ha
C    -2.50005  -1.47059  -2.39044
N    -1.52538  -1.18799  -1.36074
C    -0.98547   0.03878  -1.15485
O    -1.27357   1.04520  -1.83044
C    -0.02383   0.11885  -0.07034
N     0.60848   1.31934   0.26217
C     1.42721   1.14457   1.26985
C     2.28799   2.13923   1.93149
O     1.39523  -0.12626   1.65652
C     0.45962  -0.85323   0.81420
O     0.27738  -2.04933   1.00291
H    -3.44731  -1.83321  -1.95880
H    -2.70237  -0.54940  -2.94954
H    -2.13018  -2.23390  -3.09431
H    -1.21983  -1.94238  -0.75120
H     0.44586   2.20217  -0.22146
H     2.03028   2.20581   3.00034
H     2.15877   3.12152   1.45986
H     3.34257   1.82976   1.85690
