19
Generated by autodE on: 2022-06-18. E = -568.927470 Ha
C    -2.59947   0.36039  -1.57057
N    -1.91849  -0.92359  -1.48813
C    -0.95051  -1.25757  -0.59274
O    -0.78169  -2.44531  -0.24772
C    -0.08527  -0.23320  -0.02392
N     0.70952  -0.60918   1.07089
C     1.51736   0.35574   1.42127
C     2.49287   0.37647   2.52470
O     1.34613   1.39237   0.61385
C     0.32809   1.06437  -0.38246
O     0.08928   1.89467  -1.24478
H    -3.31587   0.31808  -2.40119
H    -1.89361   1.17505  -1.76631
H    -3.15631   0.59396  -0.64611
H    -2.47180  -1.73348  -1.75751
H     0.65325  -1.52829   1.50897
H     2.47357  -0.57888   3.06386
H     3.50335   0.55613   2.12507
H     2.25327   1.19766   3.21857
