42
Generated by autodE on: 2022-06-18. E = -920.430966 Ha. Imaginary frequency = -504.3 cm-1
C     5.53488   1.01571   1.57819
C     4.48385   0.22683   1.26898
C     4.48509  -1.24562   1.58919
C     3.30799   0.79929   0.60971
C     2.20225   0.11292   0.24654
C     1.03241   0.72520  -0.39757
C    -0.23280   1.06469   1.13541
C     0.38753   2.05030   2.05899
N    -1.40950   1.32606   0.47779
C    -1.82169   0.11473  -0.04679
C    -2.92704   0.00470  -0.99819
O    -3.43186   1.01393  -1.51790
N    -3.32069  -1.25333  -1.28941
C    -4.37170  -1.51895  -2.24929
C    -1.26762  -0.90029   0.79322
O    -1.44217  -2.10900   0.86883
O    -0.34906  -0.23979   1.60821
C     0.24934  -0.01515  -1.33607
C    -0.32712   0.74465  -2.49813
C     0.44169  -1.48634  -1.56130
H     5.52843   2.08472   1.34378
H     6.42399   0.61465   2.07272
H     3.64251  -1.50850   2.25025
H     4.36671  -1.85061   0.67482
H     5.41986  -1.54524   2.08363
H     3.35175   1.87474   0.40066
H     2.14830  -0.95839   0.45196
H     1.16823   1.78219  -0.65496
H    -0.20193   2.12057   2.98669
H     0.41615   3.03675   1.57578
H     1.41092   1.74546   2.31215
H    -1.53490   2.18952  -0.04693
H    -2.87029  -2.01987  -0.79395
H    -5.34313  -1.12366  -1.90886
H    -4.14431  -1.05828  -3.22352
H    -4.46274  -2.60359  -2.38513
H    -1.10162   0.17439  -3.03037
H    -0.74124   1.71915  -2.19763
H     0.48277   0.95184  -3.22297
H     0.71247  -2.03964  -0.65351
H     1.25179  -1.64130  -2.29854
H    -0.47010  -1.93692  -1.98067
