34
Generated by autodE on: 2022-05-28. E = -923.546068 Ha
C     2.40129  -3.39584   0.13978
C     2.39411  -2.02593  -0.46911
O     3.25060  -1.64419  -1.25456
C     1.28341  -1.08589  -0.10371
N     0.37056  -1.41009   0.73246
C    -0.59908  -0.30833   0.85376
C    -1.98306  -0.78456   0.46282
C    -3.06149  -0.65087   1.34610
C    -4.34380  -1.06777   0.97286
C    -4.55874  -1.62738  -0.28948
C    -3.48568  -1.76595  -1.17792
C    -2.20749  -1.34672  -0.80396
C    -0.07482   0.86386  -0.02213
C     0.52861   2.03623   0.80689
O     1.79069   1.48582   1.21058
C     2.30182   1.26668  -0.12072
C     2.09683   2.62361  -0.78398
C     0.99287   3.08207  -0.19196
F     0.28124   4.17524  -0.45495
C     1.21006   0.29574  -0.69442
H     3.27238  -3.95801  -0.21999
H     2.42605  -3.31987   1.23789
H     1.47314  -3.92818  -0.12060
H    -0.63123  -0.01669   1.91450
H    -2.89427  -0.21482   2.33442
H    -5.17590  -0.95616   1.67232
H    -5.55910  -1.95540  -0.58203
H    -3.64662  -2.20288  -2.16651
H    -1.37399  -1.45546  -1.50288
H    -0.83191   1.22053  -0.72944
H    -0.06681   2.38356   1.65883
H     3.32034   0.86669  -0.09481
H     2.66145   3.03227  -1.61982
H     1.21966   0.28151  -1.79147
