21
Generated by autodE on: 2022-05-28. E = -516.633861 Ha
C     4.38616  -0.31744   0.33994
C     3.03311   0.23872   0.68630
O     2.70021   0.57827   1.82205
C     2.13410   0.49435  -0.42380
N     1.19060  -0.10849  -0.89939
C     0.08965  -0.59844  -1.33717
C    -1.18737  -0.31170  -0.69087
C    -1.26268   0.41152   0.51803
C    -2.50117   0.67945   1.09825
C    -3.68069   0.22645   0.49332
C    -3.61268  -0.50089  -0.70015
C    -2.37730  -0.76963  -1.28979
H     4.31819  -1.06732  -0.46304
H     4.83860  -0.75388   1.24136
H     5.03083   0.50220  -0.01977
H     0.12798  -1.24541  -2.21883
H    -0.34480   0.74620   1.00747
H    -2.54796   1.23988   2.03498
H    -4.64855   0.43504   0.95488
H    -4.52859  -0.86025  -1.17522
H    -2.32346  -1.33389  -2.22404
