13
Generated by autodE on: 2022-05-28. E = -406.788329 Ha
F     2.05892   0.01053   1.06597
C     0.94460   0.23447   0.37571
C     0.17943   1.32175   0.30356
C    -1.00059   0.83913  -0.57422
C    -1.81846  -0.19104   0.24482
C    -1.03132  -1.26624   0.33614
C     0.25287  -0.87584  -0.43724
O    -0.31196  -0.05954  -1.47865
H     0.27039   2.28625   0.79800
H    -1.56078   1.61151  -1.11222
H    -2.79961  -0.00660   0.68144
H    -1.18385  -2.20598   0.86547
H     0.89176  -1.68021  -0.81816
