34
Generated by autodE on: 2022-05-28. E = -923.420477 Ha. Imaginary frequency = -321.7 cm-1
C     2.42721  -3.42534  -0.85522
C     2.51792  -2.20841   0.02273
O     3.55575  -1.82474   0.56248
C     1.32035  -1.39631   0.10938
N     0.29506  -1.32364   0.75644
C    -0.78513  -0.63580   1.03727
C    -2.10439  -1.04214   0.57739
C    -3.23681  -0.34270   1.04128
C    -4.50936  -0.66671   0.57196
C    -4.67555  -1.69651  -0.36140
C    -3.55608  -2.40045  -0.82380
C    -2.28100  -2.07948  -0.36188
C    -0.00726   1.15686  -0.62057
C     0.42742   2.19993   0.43180
O     1.58272   1.54621   0.98696
C     2.26680   1.38285  -0.28053
C     2.30355   2.84565  -0.77756
C     1.14820   3.33151  -0.32402
F     0.58372   4.52131  -0.52065
C     1.16986   0.62954  -1.07583
H     2.23301  -3.11489  -1.89525
H     3.37301  -3.98210  -0.80854
H     1.58663  -4.06430  -0.54082
H    -0.70597   0.07360   1.86552
H    -3.10577   0.46155   1.76945
H    -5.37841  -0.11501   0.93830
H    -5.67330  -1.95236  -0.72514
H    -3.68040  -3.20744  -1.54992
H    -1.41165  -2.63262  -0.72450
H    -0.98790   1.12995  -1.09095
H    -0.29762   2.50529   1.19455
H     3.22973   0.87702  -0.15319
H     3.05369   3.29648  -1.42378
H     1.35320   0.12436  -2.02250
