38
Generated by autodE on: 2022-06-20. E = -1046.507443 Ha
C     3.51150   1.82682   1.80617
O     2.32171   1.15401   1.35290
C     2.16333   1.02384   0.04807
O     2.94219   1.40562  -0.79578
C     0.86361   0.31621  -0.31816
N     0.26051   0.82451  -1.52033
C    -0.70476  -0.28503  -1.67141
C    -1.49928  -0.28293  -2.95190
C     0.21338  -1.49323  -1.48125
O     0.15772  -2.60326  -1.94299
O     1.20708  -1.08031  -0.64170
C    -1.49149  -0.09453  -0.30578
N    -2.35710  -1.16594   0.12116
C    -3.54683  -1.41698  -0.67580
C    -1.76715  -2.26125   0.75032
C    -0.66907  -2.14427   1.51262
C    -0.07269  -0.79760   1.79869
C    -0.31686   0.25865   0.69823
C    -0.57209   1.65049   1.33323
N    -0.49653   2.69584   0.49249
O    -0.83953   1.77953   2.52832
H     3.52992   2.85395   1.41624
H     3.45256   1.83075   2.89968
H     4.40381   1.28245   1.46789
H     0.94379   0.84388  -2.28316
H    -2.03087  -1.23461  -3.07636
H    -2.23137   0.53674  -2.95338
H    -0.82360  -0.15792  -3.81200
H    -2.11085   0.79574  -0.47379
H    -4.31117  -1.91039  -0.05693
H    -3.35745  -2.05850  -1.55537
H    -3.96207  -0.46300  -1.02911
H    -2.26584  -3.22138   0.59174
H    -0.23720  -3.02797   1.98482
H     1.00610  -0.87977   1.98770
H    -0.50874  -0.39395   2.72584
H    -0.68683   3.62768   0.84769
H    -0.33437   2.53907  -0.50103
