20
Generated by autodE on: 2022-06-20. E = -457.715330 Ha
C    -3.14113  -0.41767   0.25077
N    -1.82586   0.13628  -0.02607
C    -1.70973   1.47922  -0.40632
C    -0.52397   2.07870  -0.59717
C     0.79622   1.37145  -0.41494
C     0.57190  -0.07233   0.00460
C     1.70364  -0.98246   0.24316
N     2.94054  -0.45082   0.07331
O     1.56855  -2.17591   0.58235
C    -0.68271  -0.57795   0.17302
H    -3.81772  -0.25474  -0.60247
H    -3.05134  -1.49744   0.42306
H    -3.59367   0.04442   1.14444
H    -2.65850   2.00161  -0.54131
H    -0.51521   3.12788  -0.90127
H     1.41589   1.90956   0.33149
H     1.38798   1.42311  -1.35186
H     3.74913  -1.04355   0.22528
H     3.08952   0.50980  -0.20775
H    -0.81535  -1.61663   0.48006
