38
Generated by autodE on: 2022-06-20. E = -1046.475578 Ha. Imaginary frequency = -443.2 cm-1
C     3.91648   0.76549   1.71590
O     2.84146   0.16283   0.97275
C     2.11255   0.97788   0.21981
O     2.29922   2.17208   0.09963
C     0.96285   0.28647  -0.42594
N     0.45015   0.81883  -1.59272
C    -0.42326  -0.15373  -2.05900
C    -1.32458   0.04823  -3.22112
C     0.06511  -1.40408  -1.56220
O    -0.22925  -2.56963  -1.77479
O     1.04813  -1.07320  -0.60853
C    -1.66650  -0.11960  -0.05337
N    -2.28377  -1.32707   0.16992
C    -3.28618  -1.78112  -0.78229
C    -1.68975  -2.25091   1.03647
C    -0.72806  -1.89955   1.90240
C    -0.25662  -0.47567   2.02870
C    -0.61190   0.37358   0.80315
C    -0.65065   1.86391   0.96430
N    -0.20522   2.37312   2.12734
O    -1.03361   2.59926   0.03623
H     3.51850   1.52498   2.40359
H     4.63926   1.22864   1.02993
H     4.38743  -0.05015   2.27513
H     0.13466   1.79126  -1.54311
H    -2.05962   0.84471  -3.02249
H    -1.86777  -0.88084  -3.43847
H    -0.75317   0.33649  -4.12029
H    -2.26626   0.60893  -0.59563
H    -2.82535  -2.25483  -1.66391
H    -3.95320  -2.50681  -0.29758
H    -3.88669  -0.92414  -1.11799
H    -2.08004  -3.26724   0.96516
H    -0.31294  -2.65112   2.57603
H     0.82811  -0.44676   2.21845
H    -0.72214  -0.02915   2.92956
H    -0.14214   3.38189   2.22218
H     0.16843   1.79382   2.86877
