39
Generated by autodE on: 2022-06-08. E = -6231.765414 Ha
C    -3.75116   2.19137  -3.01786
N    -2.53955   1.68699  -2.40269
C    -2.48257   1.38334  -1.09939
O    -3.43981   1.46034  -0.32460
C    -1.12566   0.92942  -0.61976
N    -0.05105   1.34604  -1.16436
C     1.11929   0.72256  -0.55210
C     2.23398   1.74264  -0.24259
O     3.21165   1.41428   0.42910
N     2.05524   2.95993  -0.76377
C     3.03370   4.01538  -0.58757
C     1.68051  -0.25334  -1.62194
O     2.83498  -0.29183  -1.97688
O     0.70882  -1.00689  -2.11073
C     1.07505  -2.02518  -3.05445
C     0.61028  -0.03328   0.73229
Br    1.44197  -1.80047   0.91642
C     0.76156   0.75144   2.08980
C     0.23469  -0.14228   3.20359
C    -1.09658  -0.12844   3.07631
C    -1.37654   0.77845   1.89416
O    -0.29128   1.71438   1.94907
C    -0.96382   0.02822   0.57566
Br   -1.93452  -1.64399   0.30633
H    -3.62299   2.19568  -4.10665
H    -3.97857   3.21609  -2.68072
H    -4.60707   1.55075  -2.75905
H    -1.68315   1.63080  -2.94544
H     1.22011   3.12331  -1.31791
H     3.23955   4.18233   0.48060
H     2.63913   4.94047  -1.02401
H     3.98547   3.76482  -1.08272
H     0.14295  -2.53592  -3.31963
H     1.53429  -1.57278  -3.94443
H     1.77978  -2.73108  -2.59192
H     1.73556   1.22285   2.22972
H     0.85177  -0.71228   3.89571
H    -1.84708  -0.68727   3.63283
H    -2.34680   1.27468   1.82158
