13
Generated by autodE on: 2022-06-08. E = -5454.682431 Ha
Br    1.41160  -1.18280  -1.07633
C     0.01903  -0.79913   0.10278
C    -0.40750   0.37361   0.58645
Br    0.21566   2.10384   0.27785
C    -1.71589   0.03434   1.34680
C    -2.76560  -0.35838   0.27956
C    -2.33998  -1.52821  -0.20408
C    -1.03830  -1.82966   0.57704
O    -1.36222  -1.26225   1.85801
H    -2.01790   0.73049   2.13596
H    -3.61877   0.25287  -0.01166
H    -2.74591  -2.14640  -1.00369
H    -0.70837  -2.87121   0.64855
