26
Generated by autodE on: 2022-06-08. E = -776.978210 Ha
C     3.96505   0.34580  -0.00116
N     3.77413  -1.09272   0.06982
C     2.60079  -1.73866   0.06573
O     2.42958  -2.95792   0.09186
C     1.41045  -0.89346   0.03515
N     0.36992  -0.36482   0.01284
C    -0.75220   0.34281  -0.01424
C    -0.56644   1.81328  -0.03992
O     0.57710   2.30192  -0.03200
N    -1.69516   2.54966  -0.07473
C    -1.70312   3.99605  -0.09416
C    -2.01781  -0.36805  -0.01261
O    -3.12278   0.16947  -0.03315
O    -1.86415  -1.70346   0.01407
C    -3.06196  -2.48943   0.02051
H     4.58310   0.69110   0.84001
H     4.45802   0.62898  -0.94338
H     2.99749   0.86358   0.04955
H     4.59726  -1.69286   0.08294
H    -2.57489   2.03472  -0.06204
H    -2.06684   4.41332   0.85982
H    -0.68392   4.36152  -0.26651
H    -2.35364   4.36857  -0.90028
H    -3.65020  -2.30871  -0.89113
H    -3.67664  -2.25477   0.90173
H    -2.73495  -3.53507   0.05660
