23
Generated by autodE on: 2022-06-17. E = -351.521381 Ha
C    -1.89332  -1.07805   3.09087
C    -1.71773  -0.63036   1.82811
C    -2.89273  -0.29178   0.94671
C    -0.36752  -0.46498   1.29342
C    -0.05805  -0.02135   0.04913
C     1.30108   0.12622  -0.43025
C     1.69385   0.56737  -1.65207
C     0.75464   0.99076  -2.74567
C     3.15209   0.66394  -2.00159
H    -1.03827  -1.32288   3.72856
H    -2.89209  -1.21004   3.51625
H    -2.85678   0.76204   0.62397
H    -2.88940  -0.90184   0.02811
H    -3.84458  -0.46053   1.46977
H     0.45216  -0.72636   1.97355
H    -0.86955   0.24137  -0.63475
H     2.08694  -0.15192   0.28248
H     0.96447   2.03252  -3.04621
H     0.91668   0.37457  -3.64779
H    -0.30577   0.92197  -2.47085
H     3.38447   0.04463  -2.88665
H     3.42132   1.69988  -2.27580
H     3.80042   0.34361  -1.17285
