12
Generated by autodE on: 2022-06-17. E = -469.079192 Ha
C     2.95287   0.35618   0.16428
O     1.55831   0.59868  -0.09046
C     0.71179  -0.37502   0.23590
O     1.01689  -1.44268   0.72594
C    -0.68571  -0.01339  -0.06745
C    -1.75342  -0.89856   0.20485
N    -2.61431  -1.64696   0.43957
N    -0.95015   1.16656  -0.60811
N    -1.14009   2.17572  -1.06615
H     3.47653   1.26271  -0.15891
H     3.11912   0.17964   1.23633
H     3.29984  -0.51256  -0.41288
