35
Generated by autodE on: 2022-06-17. E = -820.574119 Ha. Imaginary frequency = -414.6 cm-1
C     4.05381  -1.40249   0.49033
C     2.88044  -1.05451  -0.06953
C     2.40209  -1.66090  -1.36024
C     2.01657  -0.05944   0.61601
N     1.11767  -1.26344   1.85542
N    -0.03676  -1.30235   1.66428
C    -0.88091  -0.65449   0.77115
C    -1.70481   0.36734   1.28374
N    -2.33152   1.27755   1.65692
C    -1.27163  -1.42272  -0.41721
O    -0.80308  -2.50430  -0.72401
O    -2.16510  -0.75071  -1.15039
C    -2.53619  -1.33078  -2.40967
C     1.01044   0.67036  -0.06746
C     0.63016   1.98909   0.35948
C    -0.24341   2.82068  -0.27300
C    -0.54111   4.17978   0.28463
C    -0.97755   2.46842  -1.53154
H     4.71187  -2.13724   0.01811
H     4.38813  -0.95948   1.43341
H     3.11574  -2.41147  -1.72803
H     1.42066  -2.14190  -1.23001
H     2.27772  -0.89312  -2.14219
H     2.51308   0.48078   1.42779
H    -1.65234  -1.44315  -3.05376
H    -3.24870  -0.63178  -2.86177
H    -3.00880  -2.31141  -2.25651
H     0.72396   0.34752  -1.06777
H     1.07705   2.33801   1.29666
H     0.01004   4.37742   1.21503
H    -0.28900   4.96522  -0.44980
H    -1.62154   4.28201   0.48627
H    -0.71747   1.48426  -1.93853
H    -2.06437   2.48029  -1.34123
H    -0.79102   3.23206  -2.30630
