32
Generated by autodE on: 2022-06-17. E = -764.341635 Ha
C     3.16644   1.74769   0.99422
O     2.18675   1.16699   0.11605
C     1.56185   0.07852   0.54909
O     1.81233  -0.48990   1.58691
C     0.49372  -0.38868  -0.47032
C     1.22984  -1.09216  -1.54320
N     1.81249  -1.62436  -2.39414
N    -0.26600   0.72213  -1.05777
C    -1.60930   0.71646  -0.49005
C    -1.69591   1.45290   0.84454
C    -3.06250   1.86527   1.30668
O    -0.68439   1.69995   1.48486
C    -1.91385  -0.78905  -0.31210
C    -2.37739  -1.43216  -1.61781
C    -0.56346  -1.30832   0.23004
C    -0.30987  -2.80472   0.12577
H     3.57026   2.61611   0.46227
H     2.68614   2.06129   1.93201
H     3.96366   1.02241   1.20848
H     0.21919   1.60383  -0.90712
H    -2.33079   1.18042  -1.18073
H    -3.79687   1.06184   1.14469
H    -3.04070   2.16396   2.36284
H    -3.38685   2.72348   0.69306
H    -2.69053  -0.94009   0.45220
H    -3.30925  -0.95968  -1.96425
H    -2.57636  -2.50515  -1.47986
H    -1.62572  -1.32500  -2.41488
H    -0.51241  -1.03610   1.29176
H    -0.30990  -3.15958  -0.91473
H    -1.08973  -3.35526   0.67370
H     0.66268  -3.05926   0.57364
