20
Generated by autodE on: 2022-06-17. E = -606.993629 Ha
C     3.35173   1.33877  -0.29042
O     2.00758   0.85137  -0.17616
C     1.85182  -0.47429  -0.02911
O     2.77557  -1.27050   0.01415
C     0.44690  -0.85077   0.07249
C     0.09617  -2.20663   0.23516
N    -0.20849  -3.32505   0.36909
N    -0.50980   0.10469   0.00874
C    -1.81867   0.04692   0.07623
C    -2.52971   1.32712  -0.03406
C    -4.02487   1.27851   0.04731
O    -1.89125   2.36931  -0.18558
H     3.84443   0.90288  -1.17140
H     3.92779   1.09096   0.61272
H     3.26896   2.42590  -0.40123
H    -0.14772   1.06600  -0.11466
H    -2.32053  -0.91161   0.20904
H    -4.44452   2.28874  -0.03776
H    -4.33137   0.81975   1.00199
H    -4.42026   0.63571  -0.75671
