32
Generated by autodE on: 2022-06-17. E = -764.282442 Ha. Imaginary frequency = -403.3 cm-1
C     4.14563  -1.00678   0.62308
O     2.94016  -0.79484  -0.12632
C     2.08134   0.10914   0.35723
O     2.26979   0.76256   1.37145
C     0.84594   0.18356  -0.42659
C     0.77085  -0.39113  -1.71962
N     0.67736  -0.87777  -2.77559
N    -0.03692   1.16818  -0.07504
C    -1.35845   1.02759  -0.31644
C    -2.23509   1.95432   0.43902
C    -3.69556   1.96922   0.09721
O    -1.76339   2.63117   1.34930
C    -1.73414  -0.93763   0.51085
C    -2.74772  -1.52745  -0.43767
C    -0.45201  -1.50075   0.63528
C    -0.02313  -2.74975  -0.07198
H     4.69931  -1.78571   0.08680
H     3.90969  -1.34160   1.64339
H     4.73754  -0.08135   0.66712
H     0.19233   1.65026   0.79950
H    -1.66478   0.68890  -1.30676
H    -4.17491   2.85150   0.54092
H    -4.16622   1.06397   0.51812
H    -3.85294   1.94350  -0.99087
H    -2.13291  -0.48042   1.42130
H    -2.32847  -1.66551  -1.44599
H    -3.63866  -0.88989  -0.52631
H    -3.08385  -2.51859  -0.08484
H     0.10336  -1.25147   1.54343
H    -0.33365  -2.76640  -1.12679
H    -0.48344  -3.63142   0.41187
H     1.06799  -2.87942  -0.03038
