39
Generated by autodE on: 2022-06-18. E = -931.515085 Ha
C    -1.08314  -3.20072  -0.03892
N    -1.36682  -1.85257   0.39761
C    -1.58361  -0.82766  -0.43983
O    -1.79553  -0.95911  -1.65231
C    -1.56515   0.57478   0.21054
C    -2.83240   1.32781  -0.19887
N    -1.43872   0.47326   1.67928
C    -0.28052   1.23435   2.15740
C    -0.62405   2.63037   2.49552
N    -0.93444   3.71809   2.75844
C     0.70003   1.16879   0.97623
C     1.44827  -0.17582   0.94147
C     1.75519  -0.62295  -0.46621
C     2.62000  -1.77928  -0.73246
N     3.05570  -2.47203   0.35331
O     2.94920  -2.14294  -1.88054
C     1.21689   0.02049  -1.54350
N     0.34797   1.05859  -1.47696
C    -0.24122   1.60983  -2.68620
C    -0.26130   1.36958  -0.20704
H    -1.64486  -3.93405   0.55888
H    -0.00694  -3.42498   0.05542
H    -1.37278  -3.30550  -1.09190
H    -1.17773  -1.57166   1.35805
H    -2.90034   1.42177  -1.29052
H    -3.72871   0.79665   0.15867
H    -2.82274   2.33618   0.24149
H    -2.29940   0.72353   2.16041
H     0.14905   0.78145   3.06500
H     1.42147   1.99531   1.00904
H     2.38238  -0.05614   1.51504
H     0.86965  -0.94733   1.47578
H     3.63652  -3.28942   0.20380
H     2.78679  -2.23584   1.29996
H     1.49624  -0.29946  -2.54912
H    -1.15952   1.07470  -2.97438
H    -0.48610   2.67023  -2.52638
H     0.48085   1.54089  -3.51128
H    -0.55253   2.42929  -0.23663
