20
Generated by autodE on: 2022-06-18. E = -457.715335 Ha
C    -3.05716  -0.86134   0.00025
N    -1.82932  -0.08327   0.02700
C    -1.87537   1.26785   0.39324
C    -0.77155   2.01881   0.53393
C     0.62272   1.48512   0.31422
C     0.57555   0.00666  -0.03604
C     1.80758  -0.76331  -0.27285
N     2.97095  -0.07417  -0.16193
O     1.81604  -1.97799  -0.55885
C    -0.60748  -0.66016  -0.14998
H    -2.85660  -1.84226  -0.44919
H    -3.82243  -0.35052  -0.60381
H    -3.46267  -1.01518   1.01493
H    -2.87911   1.66618   0.55232
H    -0.88920   3.06775   0.81543
H     1.24213   1.65853   1.21774
H     1.13173   2.06493  -0.48332
H     3.84410  -0.56705  -0.31322
H     3.00366   0.91029   0.07010
H    -0.61172  -1.72166  -0.40266
