19
Generated by autodE on: 2022-06-18. E = -473.740899 Ha
C     0.92552   1.69381   3.35625
N     0.83019   0.58262   2.43343
C     0.30559   0.68352   1.19520
O    -0.14900   1.75079   0.73317
C     0.27866  -0.54014   0.36827
C     0.75541  -1.90166   0.72455
N    -0.24934  -0.32801  -0.82764
C    -0.44733  -1.18203  -1.85197
C    -1.03004  -0.72696  -3.03861
N    -1.51655  -0.36481  -4.04284
H     0.50411   2.58799   2.88342
H     1.97480   1.89580   3.62463
H     0.36727   1.48637   4.28313
H     1.18932  -0.31505   2.73664
H     1.15649  -1.96288   1.74328
H     1.54598  -2.23309   0.02685
H    -0.06799  -2.63429   0.64161
H    -0.53922   0.65547  -0.94618
H    -0.15035  -2.22382  -1.74616
