20
Generated by autodE on: 2022-06-21. E = -457.715328 Ha
C     3.04541  -0.49804  -0.75715
N     1.59366  -0.55717  -0.70791
C     0.89721  -1.24593  -1.70911
C    -0.44340  -1.27192  -1.77239
C    -1.33009  -0.56462  -0.77724
C    -0.48944   0.17504   0.25075
C    -1.11319   0.96098   1.32735
N    -2.46974   0.98853   1.33653
O    -0.46216   1.57709   2.19579
C     0.87258   0.13490   0.21796
H     3.39632   0.07836  -1.62989
H     3.42065  -0.01594   0.15429
H     3.47220  -1.51116  -0.81801
H     1.52803  -1.76327  -2.43438
H    -0.91453  -1.83648  -2.58027
H    -2.01363   0.13151  -1.30522
H    -2.00659  -1.29346  -0.28506
H    -2.93912   1.52104   2.06072
H    -3.03248   0.50570   0.64783
H     1.45127   0.67700   0.96746
