24
Generated by autodE on: 2022-06-21. E = -816.695008 Ha
C     4.80757  -1.07420   0.01549
O     3.48587  -0.50507   0.13586
C     2.48250  -1.25744  -0.28165
O     2.53929  -2.37236  -0.75310
C     1.21538  -0.57951  -0.11222
N     0.14545  -0.12040  -0.03053
C    -1.06549   0.40618   0.06559
C    -1.19709   1.75519   0.62036
O    -2.24544   2.35893   0.76296
O     0.00036   2.26455   0.96339
C    -0.00206   3.58441   1.51998
C    -2.20704  -0.39160  -0.38783
O    -3.37156  -0.03608  -0.35729
O    -1.81366  -1.59189  -0.85227
C    -2.84714  -2.46508  -1.32287
H     4.87328  -1.99777   0.60694
H     5.02902  -1.28718  -1.03937
H     5.49085  -0.31413   0.40836
H    -0.41449   4.30797   0.80156
H    -0.59448   3.61389   2.44621
H     1.04622   3.82242   1.73505
H    -2.34086  -3.37899  -1.65500
H    -3.39008  -2.00699  -2.16256
H    -3.55629  -2.69766  -0.51494
