45
Generated by autodE on: 2022-10-21. E = -1200.406942 Ha
C     1.02752   4.73600   0.40541
N     1.09057   3.29286   0.28254
C    -0.02331   2.54520   0.31476
O    -1.16718   2.98012   0.46970
N     0.16316   1.16760   0.16757
N     1.36763   0.61366  -0.02767
C     1.25220  -0.66840  -0.15218
C     2.44521  -1.53431  -0.21725
O     2.40941  -2.72659   0.03138
O     3.55814  -0.87636  -0.54587
C     4.77180  -1.64293  -0.56553
C    -0.18396  -1.15815  -0.04156
O    -0.69864  -1.74763  -1.21967
C    -0.15109  -2.97787  -1.67227
C    -0.55509  -1.94461   1.24405
C     0.12233  -1.30706   2.47493
C    -0.65893   0.02824   2.66466
C    -1.68560   0.00597   1.51592
C    -2.01640  -1.49996   1.43221
C    -0.94639   0.21824   0.16632
C    -1.83789   0.55580  -1.03475
O    -1.41550   1.07703  -2.04382
O    -3.10795   0.21901  -0.84987
C    -4.00926   0.47270  -1.93943
H     2.05042   5.12853   0.45078
H     0.51140   5.19631  -0.45280
H     0.49563   5.03176   1.32246
H     1.97874   2.82925   0.12188
H     5.56570  -0.94181  -0.84687
H     4.70127  -2.45483  -1.30376
H     4.97342  -2.06900   0.42795
H     0.84527  -2.84007  -2.12230
H    -0.08022  -3.72493  -0.86716
H    -0.83758  -3.35239  -2.44437
H    -0.37164  -3.02015   1.14090
H    -0.01087  -1.97025   3.34138
H     1.20292  -1.15937   2.34602
H    -1.19525   0.04182   3.62381
H    -0.00969   0.91361   2.64089
H    -2.52660   0.69456   1.64590
H    -2.45910  -1.88065   2.36426
H    -2.66365  -1.76589   0.58820
H    -4.99397   0.13197  -1.60058
H    -3.69498  -0.08903  -2.83050
H    -4.03352   1.54701  -2.17031
