18
Generated by autodE on: 2022-10-21. E = -584.879668 Ha
C    -4.15082   0.18446   1.15543
N    -3.57427  -0.55914   0.04943
C    -2.26995  -0.59509  -0.28572
O    -1.81638  -1.23244  -1.23914
N    -1.46952   0.18674   0.58393
N    -0.25313   0.16875   0.29828
C     0.89547   0.19654   0.08861
C     2.29966   0.17863  -0.25935
O     2.72951  -0.46649  -1.19122
O     3.00395   0.94473   0.56340
C     4.42285   1.01333   0.31638
H    -3.73764  -0.13756   2.12323
H    -5.23270   0.00195   1.16405
H    -3.98274   1.26747   1.05275
H    -4.18824  -1.09827  -0.55230
H     4.82339   1.68521   1.08298
H     4.87039   0.01374   0.40684
H     4.61207   1.41680  -0.68811
