18
Generated by autodE on: 2022-10-26. E = -584.882423 Ha
C    -2.28130   4.10926   0.10896
N    -2.10714   2.78760   0.67421
C    -1.19334   1.93033   0.18632
O    -0.44220   2.17582  -0.75838
N    -1.19953   0.70094   0.89567
N    -0.36601  -0.12652   0.47188
C     0.39232  -0.94554   0.12483
C     1.35805  -1.89190  -0.38442
O     2.08669  -1.63769  -1.31988
O     1.32231  -3.02764   0.30196
C     2.24628  -4.05366  -0.11246
H    -2.55431   4.05659  -0.95719
H    -3.08394   4.62284   0.65166
H    -1.35998   4.70811   0.19298
H    -2.67646   2.49061   1.45919
H     2.06720  -4.90036   0.55885
H     2.05093  -4.34008  -1.15529
H     3.27995  -3.69412  -0.01260
