45
Generated by autodE on: 2022-10-21. E = -1200.290608 Ha. Imaginary frequency = -395.6 cm-1
C    -1.05945   4.72729   0.25630
N    -0.60008   3.47212   0.81110
C     0.40112   2.75040   0.26803
O     1.16287   3.12950  -0.61899
N     0.46512   1.46721   0.87605
N     1.33855   0.67588   0.44146
C     1.45508  -0.49527   0.11440
C     2.64786  -1.31712  -0.16618
O     3.60086  -0.90064  -0.78931
O     2.51786  -2.55233   0.30012
C     3.59333  -3.46644   0.01962
C    -0.56851  -1.27742  -0.24029
O    -0.39593  -1.51016  -1.56832
C     0.05188  -2.79308  -2.00294
C    -0.81499  -2.40237   0.78596
C    -0.15334  -2.06429   2.14668
C    -0.95186  -0.82336   2.63703
C    -1.99866  -0.62473   1.51256
C    -2.30054  -2.09860   1.12800
C    -1.32339  -0.17352   0.22205
C    -1.86223   0.91630  -0.57938
O    -2.83312   1.59449  -0.26226
O    -1.18269   1.12732  -1.72388
C    -1.65358   2.17148  -2.58150
H    -2.03351   4.60444  -0.24346
H    -1.16737   5.48464   1.04747
H    -0.32588   5.08431  -0.47598
H    -1.20972   2.98470   1.46103
H     3.29597  -4.42029   0.46830
H     3.72150  -3.57417  -1.06657
H     4.52703  -3.10340   0.47114
H     0.29389  -2.68385  -3.06798
H    -0.74268  -3.54773  -1.89010
H     0.94745  -3.12342  -1.45886
H    -0.58007  -3.40530   0.41689
H     0.92445  -1.88717   2.06668
H    -0.29150  -2.92051   2.82303
H    -0.32512   0.06611   2.76831
H    -1.46415  -1.02870   3.58836
H    -2.84851   0.01008   1.78711
H    -2.68680  -2.71058   1.95885
H    -2.96876  -2.18745   0.25908
H    -2.69596   1.98969  -2.88154
H    -1.58295   3.15002  -2.08697
H    -1.00021   2.15330  -3.46188
