14
Generated by autodE on: 2022-10-20. E = -506.330267 Ha
C    -1.62843  -1.62250  -0.24041
O    -0.59861  -1.23015   0.67650
C     0.20104  -0.19463   0.31372
O     1.53513  -0.42428   0.36800
C     1.99170  -1.47457  -0.49727
C    -0.25492   1.01568  -0.02785
F    -1.53363   1.36918   0.02665
F     0.51280   2.01636  -0.43290
H    -1.96650  -2.61791   0.07652
H    -1.23391  -1.67490  -1.26753
H    -2.47837  -0.92376  -0.20770
H     3.07464  -1.56123  -0.34237
H     1.78534  -1.22162  -1.55042
H     1.50755  -2.43092  -0.24711
