11
Generated by autodE on: 2022-10-20. E = -227.480818 Ha
C    -1.52383  -0.84250   0.07781
C    -0.08752  -0.39900   0.04726
C     1.03569  -1.38914   0.18372
N     0.18636   0.85245  -0.09993
N     0.43134   1.97064  -0.23130
H    -2.21443   0.00582  -0.03097
H    -1.75357  -1.35495   1.02892
H    -1.72804  -1.56065  -0.73623
H     2.01822  -0.89810   0.14015
H     0.99065  -2.14388  -0.62152
H     0.96294  -1.93208   1.14287
