25
Generated by autodE on: 2022-10-20. E = -733.788600 Ha. Imaginary frequency = -486.5 cm-1
C     2.02143   0.65084   1.92343
O     0.67485   0.39057   1.51337
C     0.55204  -0.09143   0.22940
O     1.00236  -1.36948   0.01200
C     2.23379  -1.53636  -0.70342
C    -1.72431  -0.71279   0.48503
C    -2.05055  -0.45346   1.92767
C    -1.78612  -2.12675  -0.01874
N    -2.08922   0.23621  -0.39177
N    -1.69395   1.05695  -1.11386
C     0.45297   0.83566  -0.79095
F     0.72949   0.50345  -2.05991
F     0.67764   2.13840  -0.57481
H     2.51708   1.35404   1.23369
H     2.60821  -0.28046   1.97840
H     1.96840   1.09913   2.92501
H     2.92209  -0.69596  -0.52558
H     2.69423  -2.46477  -0.33645
H     2.04865  -1.62912  -1.78473
H    -1.97247   0.61351   2.17543
H    -1.33383  -1.00984   2.54831
H    -3.06414  -0.81018   2.18175
H    -2.79913  -2.55170   0.09072
H    -1.09794  -2.73555   0.58386
H    -1.48035  -2.19262  -1.07208
