73
Generated by autodE on: 2022-10-25. E = -1762.689919 Ha
C   -14.71573  -4.22184   0.11396
N   -15.27753  -4.39471  -1.21463
C   -15.27186  -3.56962  -2.27494
O   -15.86924  -3.86232  -3.31654
C   -14.39966  -2.28485  -2.19191
C   -14.91764  -1.36542  -1.04757
O   -16.01944  -1.56225  -0.52719
N   -14.08562  -0.38312  -0.68751
C   -14.47506   0.64714   0.25396
O   -13.07496  -2.73044  -1.88105
C   -12.12952  -2.38485  -2.90313
C   -11.16451  -1.43869  -2.15047
O   -11.43421  -0.27046  -1.93681
O   -10.11284  -2.04526  -1.63264
C    -9.23930  -1.25233  -0.80852
C   -11.51359  -3.65091  -3.50304
C   -12.35967  -4.74226  -3.74678
C   -11.88458  -5.89250  -4.38028
C   -10.54985  -5.97045  -4.78579
C    -9.69890  -4.88779  -4.54792
C   -10.17508  -3.73772  -3.91398
C   -12.96097  -1.60270  -3.90873
C   -14.25548  -1.54595  -3.53927
C   -15.41826  -0.83580  -4.26006
C   -16.72110  -0.77913  -3.40836
C   -15.10901   0.67367  -4.38102
C   -15.62824   1.43355  -5.57170
O   -14.59367   1.26111  -3.44273
C   -15.85784  -1.52764  -5.58228
C   -14.91219  -1.75425  -6.76383
C   -13.77823  -2.76364  -6.52972
C   -12.39599  -2.15836  -6.31051
C   -12.24603  -1.13074  -5.17171
O   -10.89222  -0.99051  -4.78598
C    -9.90387  -0.91537  -5.80233
O   -12.73847   0.11518  -5.64685
C   -12.17542   1.28239  -5.05204
H   -13.86221  -3.53849   0.09624
H   -15.46528  -3.83823   0.82291
H   -14.35709  -5.19616   0.47493
H   -15.84690  -5.22586  -1.36097
H   -13.24348  -0.22459  -1.24185
H   -15.08424   1.42654  -0.23531
H   -13.57369   1.11604   0.66991
H   -15.06294   0.20986   1.07180
H    -9.78990  -0.86411   0.05969
H    -8.43865  -1.92719  -0.48669
H    -8.82742  -0.41620  -1.39040
H   -13.40884  -4.69569  -3.46454
H   -12.56577  -6.72693  -4.56201
H   -10.17546  -6.86762  -5.28430
H    -8.65293  -4.93270  -4.86022
H    -9.49627  -2.90469  -3.75497
H   -17.50265  -0.27616  -3.99518
H   -16.58956  -0.21287  -2.48191
H   -17.07610  -1.78753  -3.17034
H   -15.42981   2.50409  -5.43381
H   -16.71249   1.27363  -5.67666
H   -15.15807   1.08110  -6.49930
H   -16.72322  -0.95779  -5.95113
H   -16.25520  -2.50680  -5.28212
H   -15.55417  -2.13345  -7.57548
H   -14.49730  -0.80611  -7.13406
H   -14.03473  -3.42615  -5.68853
H   -13.68940  -3.42172  -7.40861
H   -11.68620  -2.97208  -6.11121
H   -12.06574  -1.65200  -7.23013
H    -9.67585  -1.90670  -6.22469
H    -8.99814  -0.51825  -5.32355
H   -10.20249  -0.23671  -6.61638
H   -11.14487   1.45243  -5.39893
H   -12.18238   1.23421  -3.95515
H   -12.79845   2.12478  -5.37777
