37
Generated by autodE on: 2022-10-25. E = -1029.217760 Ha
C     3.29341   2.61261  -1.74069
N     2.25065   1.75848  -1.21226
C     2.49968   0.47398  -0.86754
O     3.63759  -0.02659  -1.02225
C     1.38142  -0.30693  -0.34089
O     0.26894   0.42279  -0.14852
C    -0.95745   0.12054   0.15192
C    -1.49009  -1.26230  -0.05720
O    -2.34958  -1.77384   0.62925
O    -1.00561  -1.78657  -1.18216
C    -1.36079  -3.14849  -1.46426
C    -1.79266   1.23302   0.54936
C    -1.19495   2.48657   0.83164
C    -1.98041   3.57690   1.18675
C    -3.37208   3.44411   1.28290
C    -3.97288   2.20892   1.01623
C    -3.19867   1.11063   0.65168
C     1.49578  -1.60274   0.32278
O     0.58164  -2.02577   1.06450
N     2.64471  -2.28384   0.13063
C     2.94308  -3.48120   0.88530
H     2.86384   3.59751  -1.96101
H     3.72049   2.19877  -2.66840
H     4.11811   2.74118  -1.02085
H     1.31647   2.13172  -1.08841
H    -0.81847  -3.41738  -2.37761
H    -1.05148  -3.79519  -0.63109
H    -2.44480  -3.23899  -1.62249
H    -0.11048   2.58885   0.77773
H    -1.50582   4.53671   1.40187
H    -3.98527   4.30123   1.56979
H    -5.05717   2.10088   1.08857
H    -3.68055   0.15774   0.43990
H     3.38354  -1.76318  -0.35038
H     3.82436  -3.96829   0.44882
H     3.15224  -3.26773   1.94836
H     2.09590  -4.18162   0.84565
