73
Generated by autodE on: 2022-10-25. E = -1762.562723 Ha. Imaginary frequency = -170.6 cm-1
C   -13.85262  -4.69677   0.05189
N   -14.48711  -4.80120  -1.24870
C   -14.75229  -3.81957  -2.12512
O   -15.36235  -4.01944  -3.18090
C   -14.30837  -2.42511  -1.72241
C   -15.23663  -1.62192  -0.90037
O   -16.33255  -2.10159  -0.56875
N   -14.80308  -0.39187  -0.55259
C   -15.65919   0.59315   0.07293
O   -13.06514  -2.03986  -1.66796
C   -11.96653  -2.41586  -2.28318
C   -10.87947  -1.46874  -1.96586
O   -11.06714  -0.35054  -1.50982
O    -9.66617  -1.96515  -2.22134
C    -8.56045  -1.07306  -2.04100
C   -11.74388  -3.81070  -2.73737
C   -12.27679  -4.32425  -3.92992
C   -12.07192  -5.66056  -4.27667
C   -11.32772  -6.49966  -3.44262
C   -10.78434  -5.99525  -2.25663
C   -10.98826  -4.66014  -1.90699
C   -13.09191  -1.26284  -4.32535
C   -14.29006  -1.13762  -4.06496
C   -15.62050  -0.57729  -4.42530
C   -16.82652  -1.02164  -3.56948
C   -15.52776   0.95691  -4.20674
C   -16.41213   1.84565  -5.03621
O   -14.80071   1.42153  -3.34517
C   -15.91147  -0.96584  -5.90312
C   -14.76248  -0.76626  -6.90341
C   -13.78028  -1.96060  -6.98693
C   -12.30842  -1.69201  -6.66128
C   -11.99612  -1.00738  -5.30743
O   -10.77277  -1.44663  -4.76496
C    -9.62057  -1.29841  -5.57918
O   -11.94120   0.38941  -5.57389
C   -11.60669   1.21910  -4.46802
H   -14.57635  -4.89747   0.85763
H   -13.43684  -3.69465   0.20379
H   -13.02969  -5.42197   0.12974
H   -14.80913  -5.72353  -1.53838
H   -13.94759  -0.06493  -0.99279
H   -16.49902   0.08404   0.56072
H   -16.05963   1.30357  -0.67008
H   -15.09897   1.16190   0.82948
H    -8.66477  -0.19495  -2.69484
H    -7.66500  -1.64314  -2.31365
H    -8.49563  -0.74281  -0.99416
H   -12.86930  -3.67949  -4.57449
H   -12.49735  -6.04613  -5.20586
H   -11.16876  -7.54514  -3.71697
H   -10.20125  -6.64404  -1.59908
H   -10.56902  -4.26900  -0.97862
H   -16.82607  -2.11358  -3.47216
H   -16.80730  -0.57801  -2.56781
H   -17.75851  -0.70702  -4.06011
H   -16.40467   2.86055  -4.61840
H   -17.44047   1.45917  -5.08566
H   -16.02650   1.87510  -6.06822
H   -16.79970  -0.40377  -6.22404
H   -16.21185  -2.02613  -5.90152
H   -15.21090  -0.60380  -7.89561
H   -14.22072   0.16278  -6.66657
H   -14.13960  -2.76832  -6.33095
H   -13.80317  -2.38075  -8.00533
H   -11.77985  -2.65663  -6.66513
H   -11.84800  -1.06442  -7.43956
H    -8.75696  -1.53510  -4.94356
H    -9.62642  -1.99476  -6.43394
H    -9.51684  -0.26900  -5.95790
H   -10.55617   1.08592  -4.16424
H   -12.25603   1.02072  -3.60219
H   -11.75688   2.25630  -4.79772
