37
Generated by autodE on: 2022-06-11. E = -1431.583667 Ha
C    -3.16963  -3.58104  -0.36766
N    -2.18767  -2.61637   0.08944
C    -2.46229  -1.31587   0.19241
O    -3.53705  -0.79104  -0.09791
C    -1.29271  -0.42866   0.71037
C    -1.76056   0.15716   1.97635
N    -2.12127   0.60920   2.98160
N    -0.07966  -1.20583   0.97367
C     0.86672  -0.81862   0.19043
C     2.19445  -1.45726   0.19426
C     2.52730  -2.40194   1.18440
C     3.78080  -3.00850   1.18895
C     4.72246  -2.68413   0.20399
C     4.40309  -1.74811  -0.78322
C     3.14836  -1.13548  -0.78859
C     0.52812   0.33514  -0.72027
C     1.22641   1.68234  -0.30371
C     0.81513   2.71792  -1.34089
C    -0.46460   2.97119  -1.04662
Cl   -1.63156   3.90635  -1.90136
C    -0.81975   2.11104   0.16100
O     0.43869   2.05430   0.84060
C    -0.95081   0.65367  -0.37023
H    -3.93594  -3.77315   0.40107
H    -3.67560  -3.21081  -1.27067
H    -2.66096  -4.52363  -0.60339
H    -1.27586  -2.92603   0.41636
H     1.79296  -2.64827   1.95173
H     4.02868  -3.73679   1.96437
H     5.70549  -3.16071   0.20892
H     5.13334  -1.49235  -1.55395
H     2.91313  -0.40932  -1.56771
H     0.71081   0.09332  -1.77415
H     2.28843   1.60921  -0.04927
H     1.41102   3.05516  -2.18711
H    -1.62507   2.47181   0.80809
H    -1.64966   0.59397  -1.20993
