24
Generated by autodE on: 2022-06-11. E = -664.318533 Ha
C    -4.74764   0.08255  -0.43156
N    -3.75027   1.00401   0.08110
C    -2.40332   0.86445   0.13780
O    -1.68251   1.80896   0.51251
C    -1.77688  -0.41207  -0.24481
C    -2.37028  -1.64193  -0.58457
N    -2.82353  -2.68441  -0.86738
N    -0.42752  -0.39742  -0.17003
C     0.73320  -0.24077  -0.06954
C     2.12253  -0.03600   0.09269
C     2.55825   1.12900   0.76122
C     3.92388   1.34326   0.92418
C     4.84923   0.40988   0.44195
C     4.41017  -0.74499  -0.21616
C     3.04985  -0.97612  -0.40316
H    -5.71500   0.60052  -0.43111
H    -4.84825  -0.81878   0.19148
H    -4.53232  -0.22777  -1.46539
H    -4.06380   1.92937   0.35739
H     1.82279   1.84255   1.13569
H     4.26890   2.24424   1.43539
H     5.91853   0.58362   0.57981
H     5.13439  -1.47103  -0.59094
H     2.69530  -1.86858  -0.92052
