20
Generated by autodE on: 2022-06-20. E = -702.138254 Ha
C    -4.35990  -0.06320   0.41442
N    -2.96041  -0.41397   0.29679
C    -1.97331   0.50345   0.19001
O    -2.14708   1.72673   0.17658
C    -0.63086  -0.06981   0.08180
O     0.43935   0.78996  -0.02608
C     1.52133   0.09257  -0.14496
C     2.86148   0.74438  -0.27409
C     4.02979  -0.17365  -0.39589
O     2.89896   1.94871  -0.27466
O     1.30250  -1.18204  -0.13155
C    -0.16319  -1.38786   0.01872
O    -0.61757  -2.49540   0.05678
H    -4.45221   1.02882   0.43276
H    -4.94020  -0.45225  -0.43758
H    -4.79164  -0.47128   1.34174
H    -2.70522  -1.39859   0.30088
H     4.95685   0.41164  -0.41799
H     4.04085  -0.88600   0.44484
H     3.93322  -0.76753  -1.32051
