40
Generated by autodE on: 2022-06-20. E = -1159.852756 Ha. Imaginary frequency = -365.3 cm-1
C     5.00353  -0.07344   0.33411
N     3.65214  -0.58120   0.19284
C     2.60602   0.04763   0.75459
O     2.70220   1.09092   1.41603
C     1.27795  -0.53861   0.50858
O     1.14865  -1.71072  -0.17253
C    -0.17171  -1.94570  -0.22906
C    -0.67829  -3.19006  -0.82416
C     0.25887  -3.88836  -1.76579
O    -1.81709  -3.56842  -0.58089
O    -0.78436  -1.34367   0.81619
C     0.09890  -0.37466   1.33036
O    -0.21699   0.37418   2.22228
C    -0.61150  -0.16960  -1.69896
C     0.44145   0.64133  -1.25384
C     0.18776   2.01253  -0.67801
C    -1.23268   2.12463  -0.16886
C    -1.64574   3.18514   0.76915
N    -0.70309   4.10483   1.08535
O    -2.79119   3.25300   1.25338
C    -2.17527   1.23729  -0.57380
N    -1.92677   0.18814  -1.42491
C    -3.00910  -0.73416  -1.74812
H     5.68135  -0.70921  -0.24748
H     5.07615   0.96030  -0.03731
H     5.32588  -0.07992   1.38750
H     3.49325  -1.44092  -0.32272
H     1.18484  -4.17453  -1.24196
H     0.54427  -3.20969  -2.58601
H    -0.23501  -4.77930  -2.17290
H    -0.46813  -0.87055  -2.52007
H     1.41153   0.46923  -1.72011
H     0.91776   2.21437   0.12301
H     0.39244   2.77280  -1.45934
H    -0.94666   4.84752   1.73172
H     0.23077   4.08935   0.69579
H    -3.20607   1.33088  -0.22967
H    -3.91940  -0.16747  -1.98571
H    -2.72829  -1.33185  -2.62491
H    -3.21589  -1.41471  -0.90888
