18
Generated by autodE on: 2022-06-18. E = -235.968070 Ha
C     1.04232   1.65039   0.27546
C     0.63806   0.22584  -0.01944
C     1.83070  -0.63409  -0.36246
C    -0.63804  -0.22588   0.01957
C    -1.83068   0.63408   0.36257
C    -1.04235  -1.65036  -0.27563
H     1.76520   1.67891   1.11056
H     1.56637   2.08797  -0.59325
H     0.20782   2.31395   0.53199
H     1.58447  -1.67759  -0.59209
H     2.55629  -0.63399   0.47082
H     2.36847  -0.21518  -1.23192
H    -2.36853   0.21502   1.23190
H    -1.58440   1.67752   0.59239
H    -2.55618   0.63418  -0.47079
H    -0.20769  -2.31431  -0.53059
H    -1.56815  -2.08753   0.59221
H    -1.76377  -1.67874  -1.11202
