20
Generated by autodE on: 2022-06-18. E = -698.195994 Ha
C    -2.05633  -1.98888   0.06451
N    -2.39518  -0.62411   0.42936
C    -1.54630   0.39497   0.49438
O    -1.80909   1.57338   0.73465
C    -0.07522   0.12993   0.27059
O     0.43255   0.07029  -0.88963
N    -0.41200   0.03616  -1.98412
C     0.34026  -0.03650  -3.07184
N     0.87835  -0.10202  -4.11284
C     0.85748   0.15871   1.43343
O     0.42694   0.19104   2.56710
O     2.12566   0.12573   1.07217
C     3.09903   0.12730   2.13535
H    -2.48759  -2.68901   0.79347
H    -2.43805  -2.23470  -0.93728
H    -0.96639  -2.12689   0.06945
H    -3.37834  -0.39052   0.56803
H     2.99966   1.04463   2.73230
H     4.07639   0.09091   1.64292
H     2.95469  -0.75323   2.77690
