20
Generated by autodE on: 2022-07-27. E = -698.189950 Ha
C     2.14773  -2.62323   2.35161
N     1.05465  -2.04752   1.59022
C     1.21474  -0.91829   0.89613
O     2.25345  -0.25635   0.82144
C     0.02126  -0.41447   0.14320
O    -1.02606  -1.13304   0.13332
N    -2.26267  -0.93393  -0.44656
C    -2.42707   0.26349  -0.98711
N    -2.73734   1.28151  -1.48514
C     0.22490   0.83259  -0.68967
O     0.49992   0.72868  -1.86118
O     0.10739   1.93147   0.01652
C     0.27322   3.18158  -0.69129
H     1.78813  -3.52741   2.85516
H     2.98926  -2.88663   1.69213
H     2.51457  -1.91041   3.10618
H     0.15018  -2.51191   1.57673
H     1.27354   3.22482  -1.14254
H    -0.49952   3.26431  -1.46808
H     0.15170   3.96570   0.06292
