38
Generated by autodE on: 2022-06-18. E = -934.167719 Ha. Imaginary frequency = -173.1 cm-1
C     2.71550  -2.69025   1.95559
N     1.68769  -2.18168   1.06766
C     1.63287  -0.89021   0.72959
O     2.48173  -0.04628   1.03363
C     0.45469  -0.46496  -0.12504
C     0.88157   0.63686  -1.09818
O     1.51066   0.30996  -2.08107
O     0.56702   1.86025  -0.75748
C     0.92637   2.90766  -1.67697
O    -0.20800  -1.49453  -0.61075
N    -1.28383  -1.40685  -1.51298
C    -1.38135  -0.29601  -2.19426
N    -1.63682   0.64480  -2.86438
C    -1.98466   0.57086   0.80121
C    -2.31658   1.85144   0.13022
C    -3.07850  -0.45230   0.78073
C    -0.82612   0.35876   1.57257
C    -0.80188  -0.85127   2.48526
C    -0.03381   1.52470   2.12168
H     3.70856  -2.35785   1.62129
H     2.56246  -2.33505   2.98832
H     2.68157  -3.78616   1.94720
H     0.91190  -2.78152   0.80321
H     2.01394   2.92059  -1.83101
H     0.41115   2.74432  -2.63373
H     0.59011   3.83972  -1.21064
H    -3.34682   2.13784   0.40247
H    -2.33480   1.69522  -0.96826
H    -1.63531   2.67637   0.35409
H    -3.73501  -0.32798  -0.09037
H    -2.71707  -1.48448   0.82572
H    -3.69273  -0.28326   1.68763
H    -0.99239  -1.79597   1.95995
H     0.15818  -0.92844   3.01250
H    -1.58890  -0.73863   3.25030
H    -0.46475   1.77824   3.10633
H     1.01436   1.24670   2.28979
H    -0.05946   2.41860   1.49424
