58
Generated by autodE on: 2022-06-27. E = -1155.967500 Ha
C     2.49242   2.89051   0.48288
C     2.44617   1.85742  -0.36763
C     3.67538   1.24989  -0.98073
C     1.13744   1.19946  -0.77032
C     0.77088  -0.01186   0.12411
C     1.42702  -1.28329  -0.31095
C     2.37858  -1.97437   0.34456
C     2.97647  -1.57737   1.66661
C     2.95200  -3.23447  -0.24658
C    -0.80422   0.04909   0.13625
C    -1.45910  -0.63976   1.33245
C    -0.73346  -1.25670   2.35705
C    -1.39376  -1.86735   3.43084
C    -2.78732  -1.86136   3.49876
C    -3.52256  -1.24528   2.47851
C    -2.86306  -0.64957   1.40452
C    -1.39897  -0.54630  -1.14863
C    -1.94749   0.23457  -2.17336
C    -2.47405  -0.36000  -3.32654
C    -2.46748  -1.74787  -3.47307
C    -1.94073  -2.54024  -2.44691
C    -1.41865  -1.94435  -1.29868
N    -1.04848   1.52257   0.19575
C    -0.98378   2.12020   1.53519
N    -0.04204   2.05916  -0.64307
C    -0.25304   3.10304  -1.48553
C    -1.53542   3.87845  -1.33265
O     0.61550   3.42152  -2.30736
H     3.44825   3.33339   0.77725
H     1.58390   3.33270   0.89860
H     4.59165   1.74455  -0.62801
H     3.74276   0.17432  -0.75163
H     3.63200   1.33272  -2.08064
H     1.21745   0.87616  -1.82197
H     1.08980   0.24196   1.14038
H     1.12311  -1.65537  -1.29307
H     4.07401  -1.50568   1.57423
H     2.60917  -0.61516   2.04580
H     2.78025  -2.35033   2.43005
H     4.03848  -3.12876  -0.41433
H     2.47590  -3.49647  -1.20300
H     2.82803  -4.08345   0.44873
H     0.35350  -1.27470   2.33554
H    -0.80748  -2.34846   4.21729
H    -3.30081  -2.33599   4.33824
H    -4.61443  -1.23443   2.51848
H    -3.44315  -0.18103   0.60713
H    -1.99048   1.31553  -2.07528
H    -2.89706   0.27343  -4.11003
H    -2.87905  -2.21122  -4.37287
H    -1.94318  -3.62921  -2.53716
H    -1.03075  -2.57579  -0.49816
H    -0.07162   1.85629   2.09913
H    -1.02073   3.21147   1.42286
H    -1.86085   1.81194   2.11673
H    -2.38141   3.24094  -1.04911
H    -1.74026   4.40473  -2.27376
H    -1.40508   4.63026  -0.53680
