23
Generated by autodE on: 2022-06-27. E = -351.521381 Ha
C    -3.61732  -0.44160  -1.00895
C    -2.55952  -0.32919  -0.17568
C    -2.72992  -0.39864   1.32045
C    -1.21772  -0.13633  -0.72208
C    -0.07801  -0.01121   0.00342
C     1.22923   0.17830  -0.59164
C     2.41238   0.31429   0.05896
C     3.69252   0.50148  -0.70536
C     2.56782   0.29222   1.55313
H    -3.49015  -0.39105  -2.09475
H    -4.63202  -0.58608  -0.62763
H    -3.78400  -0.54578   1.59484
H    -2.37145   0.52498   1.80456
H    -2.14146  -1.22677   1.74930
H    -1.14830  -0.09172  -1.81569
H    -0.13865  -0.05544   1.09423
H     1.24913   0.21275  -1.68770
H     3.53011   0.51001  -1.79317
H     4.41210  -0.30208  -0.46582
H     4.18570   1.44751  -0.41796
H     1.62109   0.16935   2.09466
H     3.04383   1.22604   1.90089
H     3.24527  -0.52632   1.85458
