35
Generated by autodE on: 2022-06-27. E = -804.414857 Ha
C     3.66072   2.03905   0.01002
C     2.61582   0.96415   0.20822
O     2.09439   0.80440   1.33397
N     2.34400   0.27056  -0.91573
N     1.35195  -0.67317  -0.76894
C     1.79776  -2.01464  -1.16015
C     0.13731  -0.40449  -0.34533
C    -0.79582  -1.48790   0.02745
C    -0.40811  -2.48422   0.94131
C    -1.31618  -3.46909   1.33005
C    -2.61320  -3.47440   0.80644
C    -3.00738  -2.48070  -0.09627
C    -2.10972  -1.48226  -0.47370
C    -0.35156   0.98603  -0.24448
C    -1.11526   1.36869   0.87040
C    -1.62185   2.66589   0.96536
C    -1.38746   3.58560  -0.06054
C    -0.64090   3.20428  -1.18234
C    -0.11600   1.91633  -1.27266
H     4.17499   1.95008  -0.95567
H     4.39151   2.00365   0.83235
H     3.16012   3.02105   0.05836
H     0.94685  -2.67523  -1.35064
H     2.39517  -1.89280  -2.07224
H     2.43860  -2.43346  -0.37174
H     0.59754  -2.46784   1.36413
H    -1.01107  -4.23268   2.04879
H    -3.32102  -4.24944   1.10912
H    -4.02097  -2.48016  -0.50295
H    -2.41862  -0.69948  -1.16871
H    -1.30038   0.64856   1.66897
H    -2.20431   2.95716   1.84216
H    -1.78888   4.59919   0.00995
H    -0.46747   3.91621  -1.99239
H     0.47445   1.62610  -2.14142
