35
Generated by autodE on: 2022-07-27. E = -804.414868 Ha
C     1.95249   1.99955  -3.12070
C     1.57130   1.52754  -1.73557
O     2.24369   0.63292  -1.17696
N     0.48475   2.15285  -1.23918
N     0.08428   1.69244  -0.00476
C     0.00814   2.76612   0.99190
C    -0.21790   0.43970   0.25128
C    -0.39797  -0.02927   1.64100
C     0.59670   0.20369   2.60741
C     0.44465  -0.29386   3.90173
C    -0.70112  -1.01901   4.24501
C    -1.69005  -1.26091   3.28515
C    -1.53435  -0.78281   1.98426
C    -0.40372  -0.54572  -0.83374
C    -1.14115  -0.22895  -1.98867
C    -1.35034  -1.19599  -2.97030
C    -0.81179  -2.48030  -2.82286
C    -0.07580  -2.79946  -1.67847
C     0.11972  -1.84051  -0.68324
H     1.71596   1.19475  -3.83737
H     3.03848   2.17222  -3.16932
H     1.41256   2.90833  -3.41662
H     1.02191   3.03518   1.31981
H    -0.60295   2.46884   1.84918
H    -0.44055   3.63102   0.48768
H     1.49862   0.75282   2.33235
H     1.22668  -0.11934   4.64385
H    -0.81995  -1.40371   5.26050
H    -2.58365  -1.83030   3.54994
H    -2.29874  -0.97985   1.23052
H    -1.55089   0.77323  -2.11231
H    -1.93735  -0.94698  -3.85717
H    -0.97018  -3.23191  -3.59967
H     0.34564  -3.79975  -1.55732
H     0.69159  -2.08929   0.21211
