58
Generated by autodE on: 2022-06-27. E = -1155.903462 Ha. Imaginary frequency = -397.8 cm-1
C     2.73582   1.80680   1.73878
C     2.36081   2.19293   0.50622
C     2.52306   3.62749   0.07709
C     1.83279   1.22287  -0.50796
C     1.56481  -0.12312  -0.15700
C     1.59914  -1.15624  -1.14374
C     1.54760  -2.50579  -0.95103
C     1.51246  -3.15521   0.40307
C     1.59081  -3.45096  -2.11615
C    -1.03886   0.43267   0.27828
C    -1.38006   0.06762   1.67506
C    -0.51310   0.38007   2.73981
C    -0.84144   0.03695   4.05076
C    -2.04595  -0.61925   4.32777
C    -2.92048  -0.92731   3.28103
C    -2.59121  -0.58886   1.96765
C    -1.39562  -0.48417  -0.80655
C    -1.79205  -0.02112  -2.08136
C    -2.14557  -0.91813  -3.08686
C    -2.13203  -2.29998  -2.85045
C    -1.75992  -2.77149  -1.59004
C    -1.37800  -1.87889  -0.58823
N    -0.74212   1.73543   0.01502
C    -0.96834   2.83351   0.96144
N     0.14261   1.98640  -0.97696
C    -0.16358   2.80422  -2.00276
C     0.93052   3.02566  -3.02289
O    -1.29218   3.30909  -2.15720
H     2.68424   0.76855   2.06964
H     3.12888   2.53475   2.45407
H     1.55542   4.08518  -0.17993
H     2.98917   4.22804   0.87089
H     3.15837   3.69500  -0.82196
H     2.25741   1.37166  -1.50492
H     1.50979  -0.39413   0.89503
H     1.65269  -0.81153  -2.18440
H     1.36768  -2.44050   1.22423
H     2.45349  -3.70459   0.59332
H     0.70541  -3.90615   0.45705
H     2.47100  -4.11831  -2.05765
H     1.62547  -2.91820  -3.07824
H     0.70595  -4.11242  -2.12409
H     0.43061   0.88367   2.53339
H    -0.14947   0.27843   4.86098
H    -2.30185  -0.88842   5.35520
H    -3.86768  -1.43098   3.48779
H    -3.28371  -0.82475   1.15849
H    -1.87389   1.04821  -2.26925
H    -2.45983  -0.53385  -4.06057
H    -2.41783  -2.99796  -3.64075
H    -1.74695  -3.84448  -1.38587
H    -1.07682  -2.26398   0.38432
H    -0.08597   3.02890   1.58397
H    -1.20463   3.72724   0.36946
H    -1.82610   2.59896   1.60086
H     0.52397   3.63826  -3.83716
H     1.27625   2.06355  -3.43063
H     1.79971   3.53694  -2.58829
