38
Generated by autodE on: 2022-06-17. E = -801.940799 Ha
C    -0.97551   0.05364   3.08737
C    -0.24798   0.70545   2.17304
C     0.79183   1.73251   2.52468
C    -0.42801   0.47817   0.68760
C     0.86383  -0.06284  -0.01185
C     1.62887   0.96935  -0.76947
C     2.94330   1.23658  -0.65409
C     3.56939   2.33451  -1.46866
C     3.88814   0.52566   0.27281
N     0.31048  -1.15001  -0.89365
C     0.12527  -0.89741  -2.19662
N     0.00049  -0.74338  -3.34659
N    -0.86427  -1.66177  -0.26539
C    -0.52569  -2.68333   0.72995
N    -1.44517  -0.51321   0.31855
C    -2.71854  -0.13374  -0.02430
C    -3.54495  -1.13923  -0.77984
O    -3.13694   0.97374   0.30718
H    -0.83607   0.24568   4.15512
H    -1.72882  -0.68291   2.79909
H     1.79787   1.40376   2.21467
H     0.81201   1.92807   3.60615
H     0.59849   2.68202   1.99705
H    -0.71623   1.43599   0.22524
H     1.49432  -0.56609   0.72750
H     1.03180   1.56901  -1.46552
H     4.02180   3.09441  -0.80788
H     2.84139   2.83067  -2.12649
H     4.39032   1.93476  -2.08874
H     4.74547   0.12749  -0.29598
H     3.42945  -0.30270   0.82710
H     4.30610   1.24030   1.00266
H     0.14993  -2.31739   1.52028
H    -1.46284  -3.02458   1.18874
H    -0.05941  -3.52783   0.20599
H    -3.10954  -1.30351  -1.77748
H    -4.56461  -0.74772  -0.88097
H    -3.56469  -2.11033  -0.26501
