23
Generated by autodE on: 2022-06-17. E = -351.521381 Ha
C    -3.37986  -1.65093  -0.38466
C    -2.46453  -0.77963   0.09383
C    -2.83337   0.25706   1.12411
C    -1.08567  -0.83234  -0.38795
C    -0.07591  -0.01799   0.00984
C     1.27573  -0.11543  -0.50254
C     2.33753   0.65758  -0.16084
C     3.68555   0.43153  -0.78491
C     2.28494   1.77968   0.83681
H    -3.10880  -2.40271  -1.13239
H    -4.41815  -1.63417  -0.04185
H    -3.89585   0.18720   1.39674
H    -2.23194   0.13779   2.04065
H    -2.63779   1.27592   0.75046
H    -0.86963  -1.60495  -1.13570
H    -0.28285   0.75526   0.75467
H     1.44391  -0.90389  -1.24612
H     4.03383   1.34243  -1.30436
H     4.44365   0.21393  -0.01112
H     3.67633  -0.39855  -1.50650
H     2.59581   2.72711   0.36202
H     3.00438   1.59778   1.65470
H     1.29278   1.92983   1.28137
