15
Generated by autodE on: 2022-06-17. E = -450.374468 Ha
C     2.60075  -0.49621  -0.09390
C     1.21792  -0.20717  -0.57772
O     0.92348   0.66620  -1.37626
N     0.25644  -1.13304  -0.11916
N    -0.94621  -0.79093   0.12488
C    -1.94198  -1.88314   0.16103
N    -1.45735   0.37100   0.42725
C    -0.66890   1.40442   0.66216
N    -0.10789   2.38780   0.96147
H     3.32388   0.13389  -0.62620
H     2.84022  -1.56151  -0.22780
H     2.64647  -0.28279   0.98740
H    -2.18017  -2.08673   1.21353
H    -1.50573  -2.76023  -0.32327
H    -2.83906  -1.53260  -0.36175
