43
Generated by autodE on: 2022-10-23. E = -1053.708144 Ha
C     1.05641  -0.63042   2.57593
C     0.26364   0.41284   2.30089
C    -0.52259   1.13099   3.36086
C     0.02650   0.94520   0.90233
C    -1.20251   0.29266   0.14609
C    -1.93389  -0.80219   0.86700
C    -3.25173  -1.06298   0.77374
C    -3.85008  -2.23449   1.50447
C    -4.22742  -0.27593  -0.05656
C    -0.47100  -0.23451  -1.12510
C    -1.20910  -1.29847  -1.93231
C    -0.74131  -2.70780  -1.78457
O    -2.13849  -0.94137  -2.62704
O    -0.19237   0.92317  -1.96389
C     0.82976   1.55857  -1.34280
O     1.30515   2.59867  -1.70482
C     1.15990   0.66626  -0.12962
C     2.59942   0.81444   0.32147
O     2.91468   1.81220   0.97039
N     3.43290  -0.14855  -0.09336
C     4.84794  -0.17111   0.22110
O     0.80442  -0.61624  -0.67477
H     1.17918  -0.98083   3.60473
H     1.59530  -1.17866   1.80162
H    -0.23853   2.19654   3.40166
H    -1.60064   1.10118   3.12509
H    -0.37074   0.68498   4.35408
H    -0.13018   2.02905   0.97276
H    -1.89751   1.07187  -0.18269
H    -1.31812  -1.46838   1.47589
H    -3.09717  -2.79113   2.08137
H    -4.33021  -2.92967   0.79356
H    -4.64453  -1.89983   2.19419
H    -5.10523   0.00771   0.54834
H    -3.80005   0.63244  -0.49982
H    -4.60659  -0.90350  -0.88186
H    -0.68648  -2.97800  -0.71843
H    -1.41629  -3.38558  -2.32173
H     0.28199  -2.78931  -2.18744
H     3.03437  -0.92246  -0.61712
H     5.44899  -0.21687  -0.69961
H     5.10335   0.74396   0.76808
H     5.09752  -1.04253   0.84607
