50
Generated by autodE on: 2022-06-04. E = -1650.226493 Ha
C    -4.47367   2.72388  -1.76734
N    -3.83532   1.56735  -1.16819
C    -2.50019   1.45819  -1.09422
O    -1.75556   2.34707  -1.52573
C    -1.93342   0.12040  -0.52729
C    -2.70153  -0.26471   0.75525
O    -3.02867   0.60464   1.57232
N    -2.89253  -1.57639   0.92811
C    -3.38972  -2.14566   2.16213
C    -0.43764   0.32588  -0.16092
C     0.05553  -0.41810   1.12090
O     0.25137  -1.75420   0.65394
C     1.17945  -1.43030  -0.38472
C     2.20186  -0.58662   0.37526
C     3.62942  -0.42490  -0.04517
F     3.97496   0.86543  -0.20431
F     4.48353  -0.95796   0.84429
F     3.84292  -1.03857  -1.22351
C     1.49854   0.04343   1.32390
C     1.90186   1.12879   2.26330
F     1.53582   2.34098   1.79798
F     1.30955   0.97821   3.46208
F     3.22713   1.16279   2.47076
C     0.38089  -0.41397  -1.25920
C    -0.64189  -1.01278  -2.26024
C    -0.65427  -0.14591  -3.53318
C    -0.33154  -2.46177  -2.64860
N    -1.92237  -0.96056  -1.51155
C    -3.13846  -1.21981  -2.26226
H    -4.23710   3.64538  -1.21116
H    -5.56007   2.57343  -1.75786
H    -4.14139   2.86129  -2.80818
H    -4.42078   0.84420  -0.76584
H    -2.47036  -2.16633   0.21241
H    -3.83100  -3.13086   1.96146
H    -2.58413  -2.26636   2.90704
H    -4.15875  -1.48925   2.59124
H    -0.22061   1.39450  -0.09859
H    -0.58652  -0.37709   2.00443
H     1.56230  -2.32330  -0.88263
H     1.07759   0.24759  -1.78637
H    -1.41746  -0.49345  -4.24491
H    -0.85028   0.90860  -3.29584
H     0.32376  -0.20941  -4.03409
H    -0.39161  -3.13100  -1.77878
H    -1.04204  -2.82229  -3.40703
H     0.67683  -2.53451  -3.08301
H    -3.98983  -1.32858  -1.57496
H    -3.39658  -0.43577  -2.99741
H    -3.03651  -2.17089  -2.80383
