31
Generated by autodE on: 2022-07-27. E = -668.240381 Ha
C    -1.31582   2.79936  -1.92408
N    -0.65105   1.58865  -1.48991
C    -0.70061   1.19379  -0.17214
O    -1.19722   1.99276   0.67255
C    -0.19097  -0.09772   0.18369
C    -0.25191  -0.69736   1.49805
O     0.24441  -1.83051   1.73090
N    -0.87300   0.00547   2.48694
C    -0.82466  -0.42606   3.86326
N     0.39976  -0.93858  -0.82113
C    -0.36033  -2.13651  -1.22006
C     1.53074  -0.64463  -1.40890
C     2.35359   0.50089  -0.94904
C     2.01304  -1.44928  -2.56776
H    -1.08029   2.97322  -2.98271
H    -2.41515   2.75030  -1.81598
H    -0.96532   3.66658  -1.34544
H    -0.47948   0.88395  -2.19725
H    -1.14403   0.95679   2.23390
H    -1.43685   0.25189   4.47322
H     0.20105  -0.42757   4.27737
H    -1.22315  -1.44652   3.98046
H     0.30369  -2.99948  -1.35159
H    -1.08777  -2.35377  -0.43393
H    -0.89281  -1.93450  -2.16200
H     2.11574   1.38702  -1.56245
H     3.41780   0.27133  -1.10191
H     2.14379   0.75143   0.09907
H     1.19848  -1.70378  -3.26032
H     2.79796  -0.90514  -3.10698
H     2.44595  -2.39697  -2.20134
