31
Generated by autodE on: 2022-06-04. E = -668.241342 Ha
C    -1.06218   3.14219  -1.88177
N    -0.35183   2.17128  -1.07763
C    -0.99233   1.06354  -0.57489
O    -2.24073   0.96025  -0.73838
C    -0.19236   0.08620   0.10464
C    -0.66398  -1.18710   0.60946
O     0.08025  -1.98534   1.23477
N    -1.96992  -1.50178   0.37313
C    -2.59101  -2.64781   0.99381
N     1.18157   0.38668   0.37498
C     1.45745   1.43132   1.37691
C     2.15226  -0.36452  -0.08282
C     3.53674  -0.21819   0.45158
C     1.90360  -1.37086  -1.14390
H    -1.94797   3.51857  -1.34899
H    -0.39583   3.99081  -2.08675
H    -1.40649   2.72969  -2.84783
H     0.65671   2.14210  -1.16791
H    -2.53073  -0.74465  -0.02126
H    -3.60388  -2.77156   0.58693
H    -2.02305  -3.56845   0.78843
H    -2.67292  -2.55247   2.09294
H     0.58739   2.09079   1.43472
H     1.61436   0.95790   2.35809
H     2.34535   2.01623   1.10587
H     4.16209  -1.05785   0.12528
H     3.98821   0.71495   0.07179
H     3.54317  -0.16215   1.55001
H     2.78004  -1.42982  -1.80558
H     1.77039  -2.36004  -0.67416
H     0.99115  -1.14236  -1.71041
