50
Generated by autodE on: 2022-06-04. E = -1650.126643 Ha. Imaginary frequency = -256.7 cm-1
C    -4.33367   2.76008  -2.73244
N    -3.87767   1.49994  -2.18078
C    -3.10124   1.45573  -1.07238
O    -2.97945   2.47072  -0.35064
C    -2.51087   0.14001  -0.73410
C    -2.78006  -0.40189   0.60927
O    -2.63663  -1.60008   0.92533
N    -3.17289   0.50954   1.54615
C    -3.20027   0.16906   2.95153
C    -0.12027   0.63587  -0.09439
C     0.16028  -0.46700   0.94581
O     0.25959  -1.62413   0.10513
C     1.24913  -1.08582  -0.77540
C     2.33424  -0.69789   0.26658
C     3.78181  -0.64324  -0.06346
F     3.97652   0.10594  -1.16963
F     4.53193  -0.11578   0.91577
F     4.27438  -1.86730  -0.33207
C     1.64955  -0.30744   1.34691
C     2.09920   0.33069   2.62059
F     2.59318   1.56830   2.41992
F     1.06776   0.45784   3.47857
F     3.05220  -0.37791   3.24777
C     0.58036   0.22991  -1.20489
C    -1.18880  -0.29467  -2.69691
C    -1.14141   1.12391  -3.19300
C    -0.63023  -1.31006  -3.64956
N    -2.09697  -0.70203  -1.77571
C    -2.44618  -2.13684  -1.74679
H    -3.48816   3.41373  -3.00782
H    -4.93041   2.55899  -3.63074
H    -4.95868   3.30383  -2.00851
H    -3.92075   0.67508  -2.76847
H    -3.10374   1.48896   1.27508
H    -2.18708   0.09177   3.38871
H    -3.74933   0.94683   3.49964
H    -3.70732  -0.79293   3.10819
H    -0.45421   1.63631   0.16997
H    -0.53986  -0.61768   1.76813
H     1.55323  -1.79457  -1.55242
H     1.01123   0.86456  -1.97415
H    -1.97463   1.28831  -3.89831
H    -0.20584   1.28588  -3.74174
H    -1.21389   1.88117  -2.40498
H    -1.36798  -1.56788  -4.43190
H     0.24586  -0.88270  -4.15425
H    -0.32716  -2.24043  -3.15264
H    -1.64316  -2.74003  -1.30614
H    -3.35246  -2.26783  -1.15532
H    -2.64209  -2.47184  -2.77230
