36
Generated by autodE on: 2022-06-18. E = -936.904743 Ha
C     3.74712  -0.84450   1.41129
O     2.84344  -0.11114   0.56676
C     1.57192  -0.08797   0.93188
O     1.12246  -0.51488   1.96735
C     0.69359   0.65524  -0.11185
C     1.47061   1.78529  -0.66092
N     2.05715   2.69014  -1.08668
O    -0.43462   1.19392   0.55258
C    -1.65751   0.55769   0.08629
C    -2.80267   1.52965   0.30009
C    -1.78818  -0.68719   1.01131
C    -2.17594  -0.44416   2.44118
O    -1.52244  -1.80730   0.61210
C    -1.33938   0.21877  -1.39839
C    -1.37346   1.49484  -2.26294
C    -2.29716  -0.78974  -2.04462
C     0.14694  -0.24549  -1.27622
C     0.38981  -1.73132  -1.15275
O     1.23394  -2.24553  -0.45024
H     4.73995  -0.72683   0.96357
H     3.45633  -1.90448   1.42866
H     3.73342  -0.43590   2.43107
H    -2.62675   2.45934  -0.25400
H    -3.74391   1.07839  -0.04747
H    -2.91125   1.78480   1.36159
H    -1.92482  -1.32935   3.03906
H    -1.67135   0.44658   2.84030
H    -3.26263  -0.26665   2.49873
H    -0.79883   2.32470  -1.82939
H    -2.40597   1.83910  -2.41184
H    -0.94906   1.26739  -3.25180
H    -1.99472  -0.97554  -3.08640
H    -3.30789  -0.35471  -2.06783
H    -2.35165  -1.74661  -1.51822
H     0.67691   0.00019  -2.21229
H    -0.20097  -2.34069  -1.86920
