22
Generated by autodE on: 2022-06-18. E = -666.153297 Ha
C     2.95145   1.67294   1.40765
O     1.77214   1.05126   0.87877
C     1.96466  -0.00622   0.07914
O     3.06425  -0.45180  -0.21411
C     0.72098  -0.58362  -0.41259
C     0.76199  -1.70534  -1.26369
N     0.87035  -2.63204  -1.96644
O    -0.39992   0.01596  -0.00835
C    -1.65716  -0.17447  -0.19808
C    -2.20979  -1.26285  -1.02160
C    -2.50446   0.82414   0.50972
C    -1.80973   1.88047   1.32094
O    -3.72098   0.74444   0.40219
H     2.59910   2.50434   2.02895
H     3.58787   2.05033   0.59413
H     3.52392   0.95935   2.01791
H    -1.89476  -2.24490  -0.63025
H    -3.30345  -1.19750  -1.00926
H    -1.84842  -1.18853  -2.06112
H    -1.18453   1.41574   2.09929
H    -1.13513   2.47111   0.68148
H    -2.56125   2.53378   1.78071
