22
Generated by autodE on: 2022-07-27. E = -666.143964 Ha
C     3.23556  -0.86957   1.02887
O     2.45196  -0.27294  -0.01271
C     1.14987  -0.07085   0.25497
O     0.62854  -0.38130   1.32945
C     0.45520   0.56875  -0.81747
C     1.07217   1.14480  -1.93572
N     1.59289   1.59799  -2.88067
O    -0.84439   1.00164  -0.60884
C    -1.72985   0.48037   0.14594
C    -2.97320   1.24731   0.34284
C    -1.62781  -0.95559   0.63464
C    -2.08797  -1.25691   2.02203
O    -1.35780  -1.78876  -0.21052
H     4.24317  -0.99007   0.61423
H     2.82314  -1.84886   1.31248
H     3.26840  -0.21694   1.91364
H    -3.05894   1.51772   1.41097
H    -2.97191   2.15678  -0.27081
H    -3.84777   0.61744   0.10853
H    -1.72896  -0.50074   2.73282
H    -1.75022  -2.26096   2.30961
H    -3.19168  -1.23682   2.03180
