36
Generated by autodE on: 2022-06-18. E = -936.818183 Ha. Imaginary frequency = -349.4 cm-1
C     3.40571  -1.20683   1.41973
O     2.69138  -0.10896   0.82968
C     1.37143  -0.06484   1.04068
O     0.76138  -0.89138   1.70220
C     0.76710   1.06713   0.35438
C     1.57098   2.10022  -0.18680
N     2.22403   2.93921  -0.66713
O    -0.52932   1.39923   0.44117
C    -1.59803   0.61579   0.34745
C    -2.86841   1.40222   0.27160
C    -1.73379  -0.63970   1.23096
C    -1.82558  -0.31874   2.70384
O    -1.95303  -1.74555   0.78868
C    -1.17420  -0.00645  -1.83490
C    -1.41951   1.32278  -2.50873
C    -2.26852  -1.02524  -2.06019
C     0.16795  -0.36546  -1.67153
C     0.62897  -1.69586  -1.29265
O     1.80775  -2.03280  -1.35470
H     4.44661  -1.09176   1.09708
H     3.00009  -2.16267   1.06328
H     3.34051  -1.15910   2.51630
H    -2.72589   2.31340  -0.32193
H    -3.67327   0.78904  -0.15631
H    -3.18701   1.69737   1.28630
H    -1.51833  -1.19985   3.28165
H    -1.22371   0.55660   2.97881
H    -2.88322  -0.09867   2.92975
H    -0.76502   2.11241  -2.11287
H    -2.46707   1.64118  -2.42816
H    -1.19570   1.21179  -3.58380
H    -2.36407  -1.15081  -3.15337
H    -3.24119  -0.66504  -1.69879
H    -2.06798  -2.00337  -1.61654
H     0.94947   0.29385  -2.05244
H    -0.13524  -2.40619  -0.91554
