23
Generated by autodE on: 2022-06-17. E = -351.521382 Ha
C     3.62724   0.69324   0.81394
C     2.54842   0.43970   0.04078
C     2.66704   0.33031  -1.45798
C     1.23397   0.26665   0.65604
C     0.07776   0.01040  -0.00611
C    -1.20129  -0.15143   0.65466
C    -2.39829  -0.40497   0.06771
C    -2.60214  -0.56455  -1.41219
C    -3.64499  -0.54605   0.89456
H     4.62206   0.82743   0.38010
H     3.53784   0.77213   1.90184
H     2.03064   1.07633  -1.96238
H     3.70454   0.48189  -1.78755
H     2.33220  -0.65889  -1.81208
H     1.20149   0.35591   1.74862
H     0.10181  -0.07959  -1.09544
H    -1.18513  -0.05529   1.74709
H    -3.04577  -1.55166  -1.63219
H    -3.32590   0.18396  -1.78056
H    -1.68009  -0.46566  -1.99929
H    -3.44816  -0.41963   1.96929
H    -4.10838  -1.53685   0.73826
H    -4.40379   0.19649   0.58841
