16
Generated by autodE on: 2022-07-27. E = -271.801365 Ha
C     1.62447  -1.52248  -0.17320
C     1.57172  -0.03583  -0.33237
O     0.37100   0.57750  -0.49076
C    -0.77688   0.33979   0.06658
C    -1.88095   1.26097  -0.32530
C    -0.86902  -0.54431   1.25373
H     1.39021  -1.91663   0.83098
H     0.92686  -2.03037  -0.87662
H     2.64332  -1.85762  -0.42231
H     2.26187   0.40190  -1.06059
H    -1.57538   1.89428  -1.17005
H    -2.17945   1.91358   0.51830
H    -2.78425   0.69772  -0.61774
H    -1.83458  -0.39742   1.75722
H    -0.04783  -0.27106   1.95067
H    -0.74950  -1.62084   1.04784
