17
Generated by autodE on: 2022-10-20. E = -456.190928 Ha
N     4.64634   0.35531  -1.04383
C     3.83544   0.46018  -0.20141
C     2.89101   0.59283   0.82020
N     1.59979   0.36121   0.58064
C     0.46388   0.16107   0.38363
C    -0.90685  -0.08317   0.14582
C    -1.34038  -0.45960  -1.14559
C    -2.69420  -0.69769  -1.36760
C    -3.62067  -0.56689  -0.32646
C    -3.18753  -0.19383   0.95131
C    -1.83923   0.04967   1.19958
H     3.17527   0.88495   1.83203
H    -0.61419  -0.56002  -1.95356
H    -3.02889  -0.98871  -2.36563
H    -4.68028  -0.75573  -0.51082
H    -3.90795  -0.09096   1.76567
H    -1.49683   0.34081   2.19367
