29
Generated by autodE on: 2022-05-26. E = -895.446631 Ha
C    -5.09375  -0.16478  -0.01866
N    -3.73697  -0.64582  -0.17068
C    -2.68695   0.20555  -0.18356
O    -2.77208   1.42096   0.04629
N    -1.45997  -0.35868  -0.46345
N    -1.30025  -1.70398  -0.72107
C    -0.05748  -1.94498  -0.94425
C     0.46578  -3.29670  -1.26869
C     0.81990  -0.72007  -0.83003
C     1.71448  -0.72453   0.45430
O     0.74226  -0.48168   1.47706
C     0.26699   0.77201   0.98252
C     1.57428   1.51113   0.79542
F     1.68283   2.81909   0.83037
C     2.50398   0.59489   0.45909
C     3.83441   0.78723   0.03779
N     4.93745   0.92478  -0.31165
C    -0.21039   0.38637  -0.46115
H    -5.15328   0.56147   0.80440
H    -5.74889  -1.01315   0.21769
H    -5.47433   0.32481  -0.93230
H    -3.56716  -1.60287  -0.46125
H     1.00363  -3.27686  -2.23130
H     1.19181  -3.62257  -0.50480
H    -0.34848  -4.03164  -1.32361
H     1.41211  -0.54136  -1.73649
H     2.28781  -1.63722   0.64274
H    -0.48751   1.23245   1.62712
H    -0.25248   1.25680  -1.12633
