15
Generated by autodE on: 2022-05-26. E = -396.254382 Ha
C    -3.71388  -0.02084   0.63638
C    -2.37411   0.04617   0.08697
N    -1.30828   0.10203  -0.36886
N    -0.16541   0.17401  -0.94434
C     0.89592   0.01075  -0.06108
O     0.78512  -0.19092   1.15886
N     2.10042   0.11125  -0.68092
C     3.33583  -0.17510   0.01356
H    -3.64976  -0.22378   1.71686
H    -4.28496  -0.83158   0.15772
H    -4.24004   0.93477   0.48599
H     2.10229   0.15731  -1.69345
H     4.18102   0.15093  -0.60668
H     3.46182  -1.25077   0.23328
H     3.37691   0.36826   0.96893
