14
Generated by autodE on: 2022-05-26. E = -499.075717 Ha
N     3.03890   1.24969  -0.12763
C     1.98808   0.75616  -0.01447
C     0.72077   0.17263   0.14494
C     0.08496  -0.73930  -0.61274
F     0.48429  -1.33794  -1.70949
C    -1.32060  -0.92062  -0.01725
C    -2.08455   0.39444  -0.29258
C    -1.48756   1.30239   0.48426
C    -0.36410   0.53413   1.21219
O    -0.98524  -0.75378   1.36924
H    -1.81920  -1.87095  -0.23371
H    -2.89063   0.50667  -1.01585
H    -1.67444   2.37111   0.57898
H     0.01478   0.93842   2.15532
