29
Generated by autodE on: 2022-05-26. E = -895.323746 Ha. Imaginary frequency = -369.8 cm-1
C    -4.70088   1.16477  -0.39965
N    -3.65508   0.37829   0.21847
C    -3.00030  -0.58888  -0.46891
O    -3.35387  -0.99209  -1.58282
N    -1.88818  -1.06582   0.23935
N    -1.23483  -1.98697  -0.36298
C    -0.20254  -2.29984  -0.87495
C     0.66028  -3.36733  -1.37318
C     0.81245  -0.23483  -0.89936
C     1.84804  -0.47375   0.22321
O     0.98354  -0.50911   1.37037
C     0.35455   0.75825   1.12734
C     1.62020   1.62770   1.05393
F     1.65001   2.89128   1.40986
C     2.58597   0.87791   0.49026
C     3.89323   1.22506   0.11326
N     4.98408   1.49073  -0.20409
C    -0.12208   0.58119  -0.32370
H    -5.42885   0.50766  -0.89637
H    -4.30956   1.86923  -1.15512
H    -5.22306   1.74105   0.37498
H    -3.21335   0.72315   1.06448
H     1.49683  -3.51383  -0.67131
H     1.08121  -3.09189  -2.35122
H     0.09684  -4.30886  -1.46227
H     1.03355  -0.34181  -1.96066
H     2.49175  -1.35614   0.15781
H    -0.38111   1.03245   1.88959
H    -0.86177   1.21697  -0.80443
