62
Generated by autodE on: 2022-12-31. E = -4175.349831 Ha
C    -4.19667  -5.53083  17.51153
N    -3.30821  -6.63773  17.22297
C    -3.44955  -7.36693  16.11059
O    -4.41749  -7.25835  15.34805
C    -2.40223  -8.48965  15.87305
C    -0.95898  -8.13275  16.33101
O    -0.75154  -7.51462  17.38523
N     0.04230  -8.61604  15.58594
C     1.42897  -8.36927  15.93184
C    -2.82719  -9.64859  16.83525
C    -4.23765 -10.23200  16.70371
C    -4.70255 -10.72724  15.33229
C    -3.86382 -11.79790  14.61718
C    -2.44603 -11.35832  14.23127
Br   -1.93492 -12.73136  12.60823
O    -1.43790 -11.54068  15.11684
C    -1.37668 -12.73599  15.89540
C    -2.37285  -9.95788  13.68191
C    -2.38612  -8.80077  14.38465
N    -2.28433  -7.71528  13.46591
C    -1.87766  -6.42641  13.69214
O    -1.54656  -5.98948  14.78279
O    -1.91428  -5.69546  12.57398
C    -1.49672  -4.32943  12.70596
N    -2.51337  -8.16540  12.14668
C    -2.20299  -9.61024  12.20323
C    -0.69124  -9.70984  11.81988
C    -0.26692  -9.57552  10.38986
O     0.12292  -9.77124  12.72396
C    -3.25068 -10.30603  11.31982
O    -4.41134 -10.36312  11.67274
O    -2.80321 -10.73577  10.15700
C    -3.73977 -11.42519   9.31172
H    -4.06651  -4.70663  16.78880
H    -5.24668  -5.85482  17.46967
H    -3.98329  -5.15254  18.51931
H    -2.39707  -6.71331  17.68245
H    -0.15306  -9.14884  14.73851
H     1.69565  -8.83995  16.89160
H     2.06375  -8.78845  15.14149
H     1.62732  -7.28922  16.01433
H    -2.07443 -10.43405  16.77376
H    -2.73291  -9.22462  17.84382
H    -4.97127  -9.48519  17.04806
H    -4.29338 -11.06443  17.42563
H    -5.70569 -11.16536  15.46058
H    -4.83602  -9.87261  14.65416
H    -4.38910 -12.04136  13.68696
H    -3.81084 -12.72381  15.20619
H    -1.45936 -13.61975  15.24469
H    -2.16404 -12.75845  16.66259
H    -0.39318 -12.72440  16.38035
H    -0.45621  -4.27435  13.05678
H    -2.15059  -3.79176  13.40746
H    -1.58058  -3.89576  11.70279
H    -3.51833  -8.05906  11.97279
H     0.75809  -9.18197  10.35996
H    -0.27907 -10.57339   9.92488
H    -0.95207  -8.93519   9.82068
H    -3.18582 -11.68554   8.40327
H    -4.09702 -12.33331   9.81795
H    -4.59062 -10.77285   9.07205
