38
Generated by autodE on: 2022-12-31. E = -3416.558079 Ha
C    -3.19867   4.31655  -0.22199
N    -2.10900   3.53069   0.32215
C    -1.84428   2.29767  -0.12109
O    -2.49496   1.74175  -1.01063
C    -0.59378   1.60503   0.49557
C    -0.40288   1.93762   1.98796
O    -0.32035   3.11606   2.36278
N    -0.29058   0.90449   2.82861
C    -0.04047   1.09535   4.24555
C    -0.63959   0.18159   0.20151
C    -0.43084  -0.89518  -0.31502
C     0.22140  -1.77849  -1.26446
Br    1.80703  -2.65811  -0.12718
O    -0.50705  -2.78766  -1.80537
C    -1.34518  -3.53659  -0.92902
C     0.88036  -0.95132  -2.37185
C     1.65153   0.30976  -1.94744
C     0.85732   1.62740  -1.71716
C     0.69271   2.12148  -0.26636
H    -3.22656   5.28603   0.29004
H    -4.16718   3.81143  -0.07874
H    -3.06430   4.48890  -1.30164
H    -1.52930   3.88485   1.08419
H    -0.32480  -0.03973   2.45559
H    -0.08930   0.12146   4.74681
H    -0.79489   1.76358   4.68666
H     0.95316   1.53773   4.42119
H    -2.04998  -2.87554  -0.39901
H    -1.90013  -4.24497  -1.55616
H    -0.73484  -4.08640  -0.19463
H     0.05199  -0.67314  -3.04630
H     1.53544  -1.63182  -2.93524
H     2.36833   0.50081  -2.76004
H     2.26714   0.07971  -1.06282
H     1.40098   2.42721  -2.24237
H    -0.12748   1.57082  -2.20802
H     1.56694   1.81545   0.32919
H     0.65235   3.21912  -0.23786
