62
Generated by autodE on: 2022-12-31. E = -4175.275164 Ha. Imaginary frequency = -282.5 cm-1
C    -4.23068  -5.19657  17.14414
N    -3.23082  -6.22184  16.92526
C    -3.25792  -7.04819  15.87264
O    -4.15939  -7.05849  15.02597
C    -2.11717  -8.10033  15.81143
C    -0.71791  -7.48730  16.09637
O    -0.56283  -6.69727  17.04089
N     0.30115  -7.94983  15.37210
C     1.64134  -7.42590  15.54605
C    -2.30878  -9.14700  16.97071
C    -3.70604  -9.72816  17.18649
C    -4.37089 -10.46656  16.01935
C    -3.52062 -11.56230  15.35230
C    -2.98931 -11.19374  13.97152
Br   -4.87551 -11.07748  12.78364
O    -2.18527 -12.08263  13.35983
C    -2.51005 -13.47154  13.38365
C    -2.43458  -9.84971  13.85767
C    -2.19675  -8.80869  14.51512
N    -1.38431  -7.48819  13.01669
C    -1.91160  -6.18689  13.05565
O    -2.62100  -5.68345  12.20421
O    -1.49307  -5.57769  14.15894
C    -2.00452  -4.26042  14.40616
N    -1.79243  -8.12638  11.94817
C    -1.61161  -9.45797  11.83036
C    -0.23781 -10.03754  12.11938
C     0.27729 -11.18342  11.29507
O     0.47002  -9.53690  12.97869
C    -2.51489  -9.98716  10.74324
O    -3.28689  -9.26055  10.14456
O    -2.38857 -11.28051  10.52024
C    -3.25011 -11.86122   9.52967
H    -4.32832  -5.00455  18.22161
H    -5.19854  -5.53630  16.75350
H    -3.96824  -4.24969  16.64386
H    -2.34324  -6.19516  17.43323
H     0.10977  -8.45551  14.50315
H     1.95463  -7.49160  16.59805
H     1.70475  -6.36909  15.23532
H     2.33122  -8.01680  14.93041
H    -1.57910  -9.95015  16.78875
H    -1.99999  -8.64606  17.89918
H    -3.61608 -10.41874  18.04248
H    -4.38754  -8.92793  17.51770
H    -4.69272  -9.74024  15.26095
H    -5.29726 -10.92272  16.39946
H    -2.62074 -11.78640  15.95335
H    -4.08368 -12.50022  15.27309
H    -3.54203 -13.62184  13.03078
H    -2.38998 -13.89505  14.39133
H    -1.80825 -13.95636  12.69421
H    -1.61037  -3.96927  15.38549
H    -3.10274  -4.27689  14.41959
H    -1.65211  -3.56714  13.62924
H    -2.60107  -7.74715  11.42833
H     0.14499 -10.99731  10.21989
H    -0.28158 -12.09731  11.53991
H     1.33898 -11.32219  11.53490
H    -3.08016 -11.38732   8.55296
H    -4.29976 -11.73748   9.82931
H    -2.98593 -12.92370   9.49299
