50
Generated by autodE on: 2022-06-03. E = -1241.737617 Ha
C     4.70986  -2.13752   0.27428
N     3.52421  -1.33213   0.06385
C     2.29306  -1.87926   0.09391
O     2.06708  -3.09341   0.19275
N     1.23308  -0.99632   0.00114
N     1.40202   0.34829  -0.09440
C     0.25700   0.93573  -0.18644
C     0.14153   2.39302  -0.31155
C    -1.11346   3.01284  -0.45445
C    -1.21155   4.40062  -0.57521
C    -0.06107   5.19286  -0.55590
C     1.19352   4.58613  -0.41423
C     1.29539   3.20258  -0.29323
C    -0.91341  -0.04058  -0.20849
C    -1.88057   0.17618   0.95323
O    -3.00527  -0.27803   0.99717
O    -1.34223   0.89784   1.93153
C    -2.13504   1.09348   3.11225
C    -1.66790  -0.16256  -1.57506
C    -0.66031  -0.04010  -2.73408
C     0.15142  -1.36623  -2.63314
C    -0.52725  -2.11690  -1.46749
C    -1.99123  -1.66518  -1.62285
C    -0.15296  -1.44760  -0.11766
C    -0.48329  -2.27000   1.15896
C    -1.13312  -3.61445   1.04145
O    -0.19004  -1.78584   2.23710
H     5.59333  -1.54122   0.01410
H     4.80840  -2.47089   1.32161
H     4.68956  -3.03067  -0.36661
H     3.59082  -0.31980   0.05764
H    -2.02759   2.41961  -0.47434
H    -2.19512   4.86276  -0.68522
H    -0.13915   6.27836  -0.65041
H     2.09835   5.19814  -0.39743
H     2.27350   2.73320  -0.18180
H    -1.52364   1.70374   3.78627
H    -3.06913   1.61656   2.86364
H    -2.36451   0.12346   3.57565
H    -2.52369   0.51904  -1.64171
H    -0.03273   0.85809  -2.67256
H    -1.21489   0.01395  -3.68190
H     1.22369  -1.20144  -2.46198
H     0.05632  -1.96235  -3.55139
H    -0.33845  -3.19480  -1.47298
H    -2.42180  -1.96985  -2.58802
H    -2.65839  -1.98775  -0.81551
H    -1.34042  -4.00495   2.04567
H    -2.06302  -3.56110   0.45844
H    -0.45308  -4.29774   0.51085
