50
Generated by autodE on: 2022-06-03. E = -1241.633750 Ha. Imaginary frequency = -296.5 cm-1
C     3.28684  -3.36461   1.84830
N     2.98081  -2.54558   0.69232
C     2.41598  -1.33214   0.83959
O     2.31561  -0.73825   1.91160
N     1.93774  -0.81891  -0.40122
N     1.46013   0.34551  -0.30526
C     0.49318   1.07043  -0.30910
C     0.23668   2.49640  -0.32339
C    -1.06236   3.01486  -0.18190
C    -1.26533   4.39456  -0.18957
C    -0.18246   5.26615  -0.33799
C     1.11299   4.75527  -0.47995
C     1.32671   3.37946  -0.47432
C    -1.15375  -0.33989  -0.39457
C    -1.76539   0.00896   0.93026
O    -2.96468  -0.08224   1.12046
O    -0.91007   0.43997   1.85278
C    -1.43157   0.68499   3.16427
C    -1.92974  -0.00203  -1.68989
C    -0.93888   0.36250  -2.82447
C    -0.15286  -0.96115  -3.03618
C    -0.87821  -1.95369  -2.08453
C    -2.33478  -1.42594  -2.14857
C    -0.57906  -1.60357  -0.62831
C    -0.22335  -2.59502   0.39097
C     0.21085  -3.96054  -0.08702
O    -0.32662  -2.36615   1.60126
H     3.63543  -4.34593   1.50488
H     4.07791  -2.90517   2.46093
H     2.39834  -3.50219   2.48556
H     2.92152  -2.98161  -0.22185
H    -1.91911   2.35318  -0.06849
H    -2.27711   4.78955  -0.07877
H    -0.34736   6.34586  -0.34359
H     1.96134   5.43316  -0.59585
H     2.33378   2.97387  -0.58450
H    -1.86656  -0.23676   3.57692
H    -0.57633   1.00498   3.77019
H    -2.19612   1.47450   3.13451
H    -2.73644   0.72469  -1.54020
H    -0.29812   1.22003  -2.58995
H    -1.51828   0.62872  -3.72058
H     0.91196  -0.87334  -2.78716
H    -0.23084  -1.31344  -4.07502
H    -0.72411  -3.00677  -2.33906
H    -3.00638  -1.92780  -1.43735
H    -2.77307  -1.44982  -3.15905
H    -0.67801  -4.50953  -0.44248
H     0.91296  -3.90271  -0.93011
H     0.65782  -4.51920   0.74502
