38
Generated by autodE on: 2022-05-29. E = -1063.445203 Ha
C     3.61320  -1.16007   1.54345
O     2.85294  -0.12965   0.87957
C     2.12755  -0.49628  -0.15990
O     2.08567  -1.60410  -0.64119
C     1.27351   0.67778  -0.70791
C     2.14303   1.81317  -1.02790
N     2.83419   2.70810  -1.28205
N     0.51630   0.28272  -1.89712
N    -0.63166  -0.43396  -1.37310
C    -0.79389  -1.70581  -1.70463
N    -0.98890  -2.80673  -2.04944
C    -1.00805   0.10529  -0.03641
C    -1.17283  -1.07598   0.92148
O    -0.30700  -1.47132   1.67202
O    -2.36305  -1.64398   0.77969
C    -2.60558  -2.85037   1.52526
C    -2.20677   1.07557  -0.11505
C    -2.48618   1.60194   1.31116
C    -1.29708   2.57474   1.57500
C    -0.45262   2.44632   0.28892
C    -1.55349   2.30204  -0.77982
C     0.18262   1.03854   0.34118
H     4.14650  -0.65913   2.35827
H     4.32181  -1.61901   0.84077
H     2.92779  -1.92196   1.94007
H     1.06093  -0.37557  -2.46251
H    -2.50265  -2.65820   2.60209
H    -1.89398  -3.62804   1.21386
H    -3.63124  -3.15019   1.28443
H    -3.06985   0.62619  -0.61985
H    -2.55175   0.79531   2.05585
H    -3.44920   2.13092   1.32316
H    -1.64887   3.60972   1.69056
H    -0.72232   2.31117   2.47433
H     0.27877   3.25129   0.14659
H    -2.22944   3.16919  -0.80641
H    -1.17276   2.11185  -1.79053
H     0.57009   0.81940   1.33989
