15
Generated by autodE on: 2022-07-26. E = -562.545733 Ha
C     2.38635  -0.16696   2.01205
O     1.64299   0.46962   0.95587
C     0.68318  -0.24819   0.38721
O     0.36457  -1.37571   0.70069
C     0.08067   0.48102  -0.75737
C     0.84722   1.45970  -1.44319
N     1.48109   2.26427  -1.99612
N    -1.10712   0.16955  -1.28252
N    -2.11453  -0.54118  -0.87544
C    -2.21896  -0.95264   0.37482
N    -2.54061  -1.32358   1.43878
H     3.11957   0.57402   2.34781
H     2.89186  -1.06472   1.62932
H     1.71130  -0.44179   2.83446
H    -1.28922   0.58033  -2.20802
