15
Generated by autodE on: 2022-05-29. E = -562.554861 Ha
C    -3.67505   0.12098  -0.40657
O    -2.29879   0.40895  -0.09220
C    -1.40404  -0.49883  -0.43729
O    -1.62960  -1.55318  -0.99773
C    -0.02533  -0.09004  -0.05466
C     0.23176   1.14048   0.59458
N     0.37165   2.16666   1.12566
N     0.91001  -0.97565  -0.37637
N     2.19675  -1.03399  -0.23575
C     2.84411  -0.04264   0.35744
N     3.57772   0.72623   0.84956
H    -3.99162  -0.79920   0.10393
H    -4.24825   0.98013  -0.04238
H    -3.79667   0.00721  -1.49271
H     0.51099  -1.80596  -0.84747
