53
Generated by autodE on: 2022-06-02. E = -1185.894569 Ha
C     4.52867  -1.74524  -1.30177
N     3.42030  -1.10365  -0.62833
C     2.66332  -0.17446  -1.25703
O     2.82747   0.12575  -2.44492
N     1.72183   0.47169  -0.45727
N     1.65817   0.10287   0.89144
C     2.08926   1.15166   1.82640
N     0.32367  -0.30381   1.08795
C     0.02701  -1.36013   1.90315
C     1.18584  -2.07826   2.54539
O    -1.14343  -1.69086   2.09735
C    -0.60689   0.25591   0.07825
C    -1.61826   1.21330   0.70837
C    -2.54438   1.90390  -0.09236
C    -3.44709   2.80875   0.46844
C    -3.44330   3.04547   1.84663
C    -2.52226   2.37211   2.65119
C    -1.61809   1.46717   2.08574
C    -1.25066  -0.94358  -0.65124
C    -0.41202  -1.98760  -1.08182
C    -0.92262  -3.09770  -1.75226
C    -2.29601  -3.19991  -1.99984
C    -3.14181  -2.18351  -1.55585
C    -2.62398  -1.06944  -0.88389
C     0.42730   1.05435  -0.89723
C     0.44838   2.57394  -0.65260
C     0.11028   0.83933  -2.37828
H     5.28976  -1.01534  -1.62441
H     4.19506  -2.29975  -2.19327
H     4.99798  -2.45381  -0.60780
H     3.23311  -1.27321   0.35418
H     3.09414   1.47413   1.52330
H     1.41511   2.01946   1.86295
H     2.15593   0.71440   2.83179
H     1.88688  -2.43755   1.77777
H     1.74601  -1.42174   3.22667
H     0.78596  -2.92716   3.11327
H    -2.55734   1.74642  -1.17106
H    -4.15476   3.33344  -0.17775
H    -4.15027   3.75226   2.28734
H    -2.50064   2.55032   3.72896
H    -0.89844   0.96420   2.72989
H     0.65866  -1.94383  -0.88323
H    -0.24362  -3.88920  -2.07808
H    -2.70094  -4.06931  -2.52300
H    -4.21958  -2.25419  -1.72113
H    -3.31634  -0.30917  -0.52889
H    -0.42231   3.05677  -1.11355
H     0.45650   2.84525   0.40810
H     1.35556   2.97742  -1.12487
H     0.27241  -0.18743  -2.71583
H    -0.94582   1.09363  -2.54359
H     0.72588   1.50606  -2.99351
