32
Generated by autodE on: 2022-06-02. E = -619.625592 Ha
C     0.87800   3.11352   0.28113
C    -0.26559   2.13814   0.17523
C    -1.61592   2.80611   0.20360
C    -0.09747   0.79411   0.06506
C     1.24246   0.15561  -0.09279
C     2.14923   0.57506  -1.08262
C     3.38997  -0.05090  -1.23217
C     3.74848  -1.11258  -0.39615
C     2.85158  -1.54919   0.58535
C     1.60998  -0.92717   0.72859
C    -1.23943  -0.16711   0.09224
C    -1.35961  -1.15005  -0.90827
C    -2.41182  -2.06746  -0.89168
C    -3.35870  -2.03372   0.13824
C    -3.24129  -1.07570   1.14970
C    -2.19145  -0.15322   1.12710
H     0.99224   3.69341  -0.65169
H     1.84004   2.63648   0.50571
H     0.66102   3.84906   1.07492
H    -1.60393   3.68688  -0.46158
H    -1.84843   3.18759   1.21349
H    -2.43587   2.14782  -0.10921
H     1.87115   1.39190  -1.75138
H     4.07692   0.28909  -2.01122
H     4.71810  -1.60253  -0.51307
H     3.12031  -2.38084   1.24152
H     0.91226  -1.27860   1.49233
H    -0.61969  -1.18725  -1.71129
H    -2.49257  -2.81461  -1.68523
H    -4.17939  -2.75490   0.15545
H    -3.96732  -1.04917   1.96620
H    -2.09844   0.58141   1.92939
