21
Generated by autodE on: 2022-06-02. E = -566.230305 Ha
C    -2.95924   1.69269   0.13651
N    -2.29469   0.40583   0.15228
C    -1.10258   0.21648  -0.43244
O    -0.48737   1.08330  -1.05701
N    -0.69924  -1.13964  -0.37040
N     0.54632  -1.42730  -0.33881
C     0.87291  -2.83683  -0.64609
N     1.58637  -0.68786  -0.11417
C     1.48515   0.45304   0.67302
C     2.56099   1.45916   0.39822
O     0.65038   0.58560   1.56334
H    -3.44937   1.89049  -0.83182
H    -2.23131   2.49505   0.32211
H    -3.72128   1.71197   0.92547
H    -2.75772  -0.39931   0.56229
H     1.39185  -3.26130   0.22223
H    -0.05656  -3.37080  -0.86039
H     1.54286  -2.84306  -1.51480
H     3.53276   0.97115   0.23947
H     2.29552   1.98686  -0.53384
H     2.61890   2.18619   1.21829
