23
Generated by autodE on: 2022-06-17. E = -351.519945 Ha
C    -3.21282  -0.18681   1.97042
C    -2.29713  -0.51976   1.03350
C    -2.52695  -1.66935   0.08653
C    -1.05453   0.24157   0.92511
C    -0.05881   0.00771   0.03307
C     1.15820   0.78861  -0.03935
C     2.17908   0.57653  -0.90721
C     2.16347  -0.53975  -1.92455
C     3.40478   1.44211  -0.89006
H    -3.04213   0.64882   2.65590
H    -4.15080  -0.73917   2.07303
H    -3.49519  -2.15402   0.27486
H    -2.50733  -1.33043  -0.96262
H    -1.73448  -2.42991   0.18407
H    -0.93614   1.06897   1.63491
H    -0.16852  -0.81698  -0.67709
H     1.24938   1.61514   0.67513
H     1.23879  -0.54172  -2.52368
H     2.23048  -1.52839  -1.43887
H     3.01247  -0.45680  -2.61843
H     3.55263   1.93143  -1.86980
H     3.35548   2.22078  -0.11478
H     4.31126   0.83368  -0.71795
