33
Generated by autodE on: 2022-06-17. E = -744.335336 Ha. Imaginary frequency = -435.1 cm-1
C     0.78686   2.66059   1.10418
C     0.47795   2.26112  -0.14562
C    -0.22567   3.16440  -1.12377
C     0.78158   0.91019  -0.64296
C     1.62893  -0.00852   0.00454
C     2.10682  -1.19198  -0.71158
C     3.07695  -2.04175  -0.30518
C     3.83457  -1.90247   0.98493
C     3.46318  -3.22725  -1.14416
N     0.35790  -0.86271   1.37264
N    -0.72337  -0.69756   0.94028
N    -1.13628  -0.10445  -0.12301
C    -2.46456   0.23768  -0.28136
O    -2.84630   0.85718  -1.25887
O    -3.26319  -0.16483   0.71591
C    -4.65426   0.16307   0.58277
H     1.28047   2.00335   1.82409
H     0.54000   3.67006   1.44369
H    -0.42397   4.15530  -0.69165
H    -1.18210   2.71530  -1.43634
H     0.37834   3.29465  -2.03769
H     0.53751   0.72201  -1.68992
H     2.23860   0.37007   0.82511
H     1.59936  -1.40426  -1.65938
H     3.67257  -2.79347   1.61677
H     4.92043  -1.85773   0.79030
H     3.55270  -1.01728   1.56946
H     4.53478  -3.18660  -1.40899
H     2.87667  -3.28745  -2.07264
H     3.32259  -4.16675  -0.58033
H    -5.14224  -0.24071   1.47753
H    -4.79129   1.25295   0.53498
H    -5.07608  -0.30085  -0.32051
