30
Generated by autodE on: 2022-07-27. E = -833.572887 Ha
C     1.99944  -2.78895  -2.91133
N     1.70658  -1.93843  -1.77047
C     0.61223  -1.17280  -1.72774
O    -0.26624  -1.16551  -2.59765
C     0.40641  -0.33968  -0.48531
C    -0.55374  -0.89366   0.53135
O    -0.29086  -0.86069   1.73648
N    -1.63404  -1.49753   0.01672
C    -2.64094  -2.09565   0.87124
N     1.09993   0.75627  -0.28380
C     2.22608   1.09570  -1.18582
N     0.97284   1.62981   0.72005
C    -0.28249   1.89762   1.15756
O    -1.35699   1.63256   0.61902
O    -0.21321   2.62273   2.29957
C    -1.45966   3.05706   2.84372
H     2.28249  -2.19210  -3.79339
H     1.11777  -3.39204  -3.17124
H     2.82939  -3.45626  -2.65101
H     2.39280  -1.85280  -1.02540
H    -1.78380  -1.44318  -0.98806
H    -3.12720  -1.33419   1.50227
H    -2.19326  -2.85226   1.53303
H    -3.39988  -2.57528   0.24208
H     2.39551   2.17151  -1.09453
H     1.96806   0.84409  -2.21997
H     3.12175   0.54412  -0.87112
H    -1.21626   3.59874   3.76630
H    -2.10871   2.19881   3.07460
H    -1.98524   3.72749   2.14666
