36
Generated by autodE on: 2022-07-03. E = -1677.324191 Ha
F    -1.12194   3.58320   1.61264
C    -0.34610   2.58179   1.17555
F     0.68621   3.12542   0.51676
F     0.15378   1.96130   2.25279
C    -1.13962   1.59051   0.28808
C    -1.82955   2.35302  -0.86969
F    -0.96310   3.09830  -1.56963
F    -2.79721   3.16371  -0.42393
F    -2.39069   1.48549  -1.72313
C    -0.23285   0.58075  -0.24999
C     0.27809  -0.50414  -0.40536
C     0.48733  -1.93794  -0.28310
Cl   -0.37271  -2.70217  -1.76932
C     1.92925  -2.39906  -0.29515
C     2.97517  -1.47313  -0.38938
C     4.30586  -1.90327  -0.36089
C     4.60102  -3.26260  -0.24008
C     3.55825  -4.19287  -0.14968
C     2.23124  -3.76513  -0.17693
C    -0.28797  -2.37845   0.98633
C    -1.68657  -1.76195   1.17911
C    -1.77262  -0.39966   1.92452
C    -2.23172   0.83688   1.12649
H     2.75019  -0.40873  -0.48296
H     5.11202  -1.16981  -0.43556
H     5.63993  -3.59976  -0.21967
H     3.78102  -5.25863  -0.06037
H     1.42481  -4.49854  -0.12308
H     0.35535  -2.11975   1.84354
H    -0.35703  -3.47533   0.96102
H    -2.19589  -1.70242   0.20357
H    -2.26213  -2.49403   1.76509
H    -2.51790  -0.50952   2.72667
H    -0.82285  -0.18960   2.43676
H    -2.68640   1.57213   1.80601
H    -3.01932   0.52911   0.42420
