66
Generated by autodE on: 2022-07-03. E = -2510.872517 Ha. Imaginary frequency = -197.4 cm-1
C     1.26022  -4.30302  -5.01048
N     0.84854  -3.59167  -3.81512
C    -0.43911  -3.41888  -3.51299
O    -1.35708  -3.76238  -4.27014
C    -0.73036  -2.78198  -2.16304
C    -1.87836  -3.35662  -1.31938
O    -1.90618  -3.32627  -0.08882
N    -2.87831  -3.86066  -2.05104
C    -4.03882  -4.44715  -1.41128
C     0.99289  -3.50955  -0.42914
C     1.19054  -2.41461   0.12935
N    -0.27949  -0.99624  -0.74316
C    -1.42081  -0.75547  -0.04536
O    -1.46844  -0.54158   1.15795
O    -2.51371  -0.65467  -0.84462
C    -3.76962  -0.52150  -0.17544
N    -0.32452  -1.53070  -1.96391
C     0.51477  -0.79632  -2.92816
C     1.81012  -1.59452   1.19707
Cl    3.61406  -2.17893   1.32073
C     1.92588  -0.11023   0.87321
C     1.38714   0.88061   1.69881
C     1.49173   2.23221   1.34377
C     2.13726   2.60575   0.16548
C     2.68688   1.61666  -0.66181
C     2.58125   0.27488  -0.30809
C     1.15354  -1.93072   2.54492
C     1.28142  -3.35853   3.09442
C     0.72437  -4.54372   2.28404
C     1.69564  -5.18079   1.26266
C     1.37123  -4.94073  -0.24879
C     0.26787  -5.94292  -0.68011
F    -0.22525  -5.69764  -1.90564
F    -0.76803  -5.93648   0.16684
F     0.74870  -7.19892  -0.69994
C     2.65531  -5.26652  -1.07464
F     2.38424  -5.52061  -2.37050
F     3.52156  -4.25170  -1.04700
F     3.29007  -6.34702  -0.59798
H     2.35433  -4.27960  -5.07336
H     0.83685  -3.83184  -5.90977
H     0.92260  -5.35142  -4.97621
H     1.55253  -3.35081  -3.12523
H    -2.75044  -3.89992  -3.06485
H    -4.60442  -3.69022  -0.84480
H    -3.73861  -5.24324  -0.71184
H    -4.69039  -4.87296  -2.18368
H    -3.92610  -1.35868   0.52031
H    -3.82269   0.42797   0.37747
H    -4.53369  -0.53984  -0.96225
H     1.57239  -1.04776  -2.76828
H     0.36335   0.26793  -2.72273
H     0.21485  -1.02590  -3.95472
H     0.86313   0.61781   2.61615
H     1.05958   2.99298   1.99814
H     2.21599   3.66007  -0.10998
H     3.19625   1.89499  -1.58749
H     3.00885  -0.49246  -0.95596
H     0.09241  -1.66602   2.43000
H     1.57928  -1.25258   3.29829
H     2.33529  -3.55685   3.34668
H     0.74420  -3.33769   4.05632
H    -0.22351  -4.25765   1.80928
H     0.46788  -5.33258   3.00684
H     2.70527  -4.78397   1.42962
H     1.75861  -6.26605   1.42221
