59
Generated by autodE on: 2022-10-23. E = -1546.114896 Ha
C    -4.31880   1.10537  -2.00764
N    -3.34652   0.75719  -0.99095
C    -2.10213   1.24689  -1.01785
O    -1.70456   2.01608  -1.89398
C    -1.15615   0.73859   0.12270
C    -1.68195   1.16435   1.51820
O    -1.26075   0.70631   2.55746
O    -2.51003   2.19900   1.44366
C    -2.92895   2.78693   2.68783
N     0.16584   1.32404  -0.04940
C     0.30634   2.75933   0.17800
C     1.22636   0.48600   0.48174
C     1.55539   0.87523   1.88264
N     1.84788   1.28944   2.92561
C     2.52045   0.62802  -0.33790
C     2.48435   1.15113  -1.63556
C     3.65328   1.23714  -2.39669
C     4.87218   0.80333  -1.86912
C     4.91621   0.29545  -0.56710
C     3.74920   0.21537   0.19507
C     0.61466  -1.00568   0.47760
O     0.59613  -1.58072   1.74355
C     1.80035  -2.07813   2.33641
O     1.38190  -1.71836  -0.43817
C     1.21827  -3.12866  -0.58849
C    -0.90975  -0.81393   0.06238
C    -1.17507  -1.34196  -1.38305
C    -0.42107  -0.78512  -2.55408
O    -2.01192  -2.21389  -1.53317
C    -1.95429  -1.59261   0.91520
C    -1.73034  -3.00733   1.35656
O    -3.01781  -1.04675   1.16253
H    -5.25028   0.56249  -1.80639
H    -3.95461   0.83028  -3.01015
H    -4.52832   2.18715  -2.00683
H    -3.60267   0.13913  -0.22196
H    -3.47517   2.04666   3.28891
H    -3.58481   3.62209   2.41877
H    -2.05511   3.14774   3.24810
H     0.21665   3.03656   1.24502
H    -0.45441   3.29531  -0.39674
H     1.29501   3.08462  -0.17151
H     1.54090   1.50653  -2.04742
H     3.60747   1.64978  -3.40718
H     5.78522   0.86880  -2.46538
H     5.86410  -0.03742  -0.13818
H     3.80200  -0.17433   1.21264
H     2.08646  -1.43983   3.18376
H     1.59225  -3.09400   2.70278
H     2.62757  -2.11743   1.61681
H     0.25443  -3.38998  -1.04793
H     2.02644  -3.44742  -1.25885
H     1.31855  -3.66017   0.36755
H     0.31145  -1.54153  -2.87523
H     0.10715   0.14177  -2.32763
H    -1.13207  -0.63393  -3.37864
H    -1.44498  -2.98526   2.41975
H    -0.94553  -3.52705   0.80279
H    -2.68630  -3.54232   1.26952
