35
Generated by autodE on: 2022-10-23. E = -932.862605 Ha
C    -3.60830  -2.63861  -0.14768
N    -3.09396  -1.29209  -0.02994
C    -1.77152  -1.03389  -0.10710
O    -0.93661  -1.95720  -0.21190
C    -1.36467   0.38739  -0.08975
C    -2.29318   1.48126   0.02573
O    -3.52502   1.38328   0.01811
O    -1.69590   2.68236   0.21039
C    -2.55632   3.82147   0.29351
N    -0.00328   0.62552  -0.31404
C     0.40604   1.47904  -1.44334
C     0.88759  -0.08465   0.36928
C     0.49156  -0.57388   1.65611
N     0.27318  -0.94198   2.73822
C     2.25940  -0.37507  -0.06458
C     3.30746  -0.33349   0.87615
C     4.61233  -0.62037   0.48130
C     4.88243  -0.97448  -0.84517
C     3.84091  -1.04670  -1.77701
C     2.53462  -0.75034  -1.39407
H    -3.53884  -3.02688  -1.17902
H    -4.66382  -2.64487   0.15349
H    -3.04914  -3.32524   0.50507
H    -3.71949  -0.48683  -0.04396
H    -3.23141   3.73975   1.15805
H    -3.15518   3.93075  -0.62292
H    -1.89618   4.68876   0.41510
H    -0.24620   2.35629  -1.45281
H     0.28078   0.92676  -2.38372
H     1.44723   1.79364  -1.31809
H     3.09685  -0.06160   1.91239
H     5.42204  -0.57077   1.21219
H     5.90521  -1.20580  -1.15085
H     4.04599  -1.34577  -2.80700
H     1.72245  -0.84146  -2.11501
