35
Generated by autodE on: 2022-10-26. E = -932.861044 Ha
C    -4.70527  -0.85705  -2.00740
N    -3.64635  -0.82963  -1.02332
C    -2.35964  -0.62175  -1.38489
O    -2.03440  -0.54275  -2.58842
C    -1.37060  -0.47334  -0.30328
C    -1.71873  -0.43274   1.09964
O    -2.87061  -0.46630   1.54294
O    -0.65860  -0.41096   1.94054
C    -0.94159  -0.34998   3.33969
N    -0.01656  -0.41453  -0.66618
C     0.53723  -1.48409  -1.51553
C     0.75975   0.54318  -0.17340
C     0.11387   1.72751   0.30952
N    -0.32336   2.74241   0.67467
C     2.21868   0.47988  -0.04773
C     2.86449  -0.70772   0.35087
C     4.25006  -0.73108   0.49306
C     5.00476   0.42020   0.24171
C     4.36747   1.60722  -0.13691
C     2.98168   1.64426  -0.26942
H    -5.65527  -1.06707  -1.49976
H    -4.79988   0.10307  -2.54396
H    -4.53077  -1.64065  -2.76152
H    -3.85828  -0.78134  -0.02796
H     0.03303  -0.32010   3.84143
H    -1.51577   0.55653   3.58161
H    -1.50612  -1.23551   3.66666
H    -0.20847  -1.69726  -2.28612
H     0.70632  -2.38144  -0.90635
H     1.47051  -1.15162  -1.98108
H     2.28126  -1.59908   0.58074
H     4.74361  -1.65151   0.81169
H     6.09106   0.39534   0.35262
H     4.95321   2.50901  -0.32616
H     2.48430   2.57212  -0.55860
