24
Generated by autodE on: 2022-10-23. E = -613.235327 Ha
C     2.22946  -1.03740  -2.11710
O     1.07785  -1.10802  -1.25237
C     0.84422  -0.15407  -0.38156
O     1.88088   0.61363  -0.16261
C     1.78969   1.95396   0.34857
C    -0.43620  -0.05122   0.19890
C    -1.61742  -0.52617  -0.53455
C    -1.54273  -0.80600  -2.02537
O    -2.71132  -0.67044   0.02225
C    -0.52580   0.41069   1.59303
C    -1.84781   0.85371   2.17345
O     0.47660   0.43574   2.31812
H     2.08901  -1.83899  -2.85063
H     2.27105  -0.06034  -2.61701
H     3.14762  -1.20631  -1.53911
H     1.94746   1.94457   1.43232
H     2.58480   2.51476  -0.15764
H     0.80661   2.38399   0.11287
H    -0.83936  -0.15341  -2.55907
H    -1.22742  -1.84736  -2.19388
H    -2.55526  -0.68542  -2.43484
H    -2.44981   1.42926   1.45770
H    -1.63725   1.44988   3.07250
H    -2.44368  -0.02535   2.46093
