63
Generated by autodE on: 2022-06-13. E = -2289.754012 Ha
C    13.31981 -22.23387   4.96969
O    13.32819 -21.44888   3.76460
C    14.02252 -20.33068   3.79675
O    14.55919 -19.87927   4.78595
C    14.07787 -19.61953   2.41361
C    14.05678 -18.14920   2.66395
N    13.84439 -17.01269   2.76704
N    12.95755 -19.98068   1.59092
C    13.33700 -20.09663   0.17611
C    13.00569 -18.78459  -0.55865
C    12.59314 -21.32781  -0.35900
C    11.68874 -21.27157  -1.42256
C    11.02036 -22.42671  -1.84760
C    11.25116 -23.64777  -1.21264
C    12.14988 -23.70915  -0.13952
C    12.80874 -22.55782   0.28503
C    14.86422 -20.31621   0.29534
C    15.29936 -20.03753   1.54769
C    16.70297 -20.15879   2.17518
C    16.86993 -21.63965   2.58927
O    15.93934 -22.34072   2.92963
O    18.12797 -22.05190   2.56306
C    18.37123 -23.41274   2.95283
C    16.86700 -19.29726   3.44441
O    16.64746 -18.10824   3.48014
O    17.40794 -19.98462   4.44487
C    17.68092 -19.26307   5.65703
C    17.93432 -19.67548   1.33048
C    17.84011 -18.32363   0.63609
C    16.75353 -18.19796  -0.43168
C    16.58676 -19.39453  -1.37115
C    15.76590 -20.64205  -0.89509
Cl   16.83983 -22.08890  -0.42736
C    15.12633 -21.22976  -2.19633
F    14.21900 -20.40452  -2.73997
F    16.09148 -21.38693  -3.12023
F    14.54926 -22.42116  -2.04141
H    14.34600 -22.53130   5.22619
H    12.87967 -21.65895   5.79611
H    12.70894 -23.11533   4.74634
H    12.13776 -19.39671   1.73525
H    13.52789 -17.95049  -0.07122
H    11.92457 -18.59421  -0.48737
H    13.28312 -18.79270  -1.61643
H    11.50153 -20.33106  -1.94041
H    10.31726 -22.36657  -2.68195
H    10.73247 -24.54917  -1.54797
H    12.33640 -24.66003   0.36567
H    13.50802 -22.60703   1.12176
H    19.45080 -23.56660   2.84648
H    18.06168 -23.57023   3.99579
H    17.81907 -24.09949   2.29556
H    16.74765 -18.85025   6.06341
H    18.39556 -18.45091   5.46361
H    18.11081 -19.99483   6.34986
H    18.17504 -20.44456   0.59431
H    18.79046 -19.66320   2.02003
H    18.82232 -18.16799   0.15929
H    17.72145 -17.51437   1.37072
H    15.78904 -17.94308   0.02644
H    17.00644 -17.33901  -1.07293
H    16.05059 -19.01971  -2.25404
H    17.56144 -19.74931  -1.73496
