28
Generated by autodE on: 2022-06-13. E = -724.778477 Ha
C     4.86187   0.39281   0.72194
O     3.80662  -0.03714  -0.14365
C     2.54837   0.16998   0.28919
O     2.28838   0.69967   1.37133
C     1.53994  -0.28929  -0.63399
C     1.88036  -0.89859  -1.85085
N     2.23283  -1.39938  -2.84903
N     0.24572  -0.07377  -0.17661
C    -0.95028  -0.28584  -0.66964
C    -1.10714  -0.85846  -2.03737
C    -2.10502   0.05822   0.17360
C    -3.33844   0.40011  -0.41688
C    -4.42928   0.75876   0.37487
C    -4.31692   0.77198   1.76827
C    -3.10147   0.42323   2.36761
C    -2.00700   0.06830   1.58205
H     5.79635   0.15281   0.20079
H     4.82094  -0.14034   1.68345
H     4.80144   1.47588   0.90509
H     0.29464   0.36413   0.75211
H    -2.16066  -1.01787  -2.28624
H    -0.65736  -0.19583  -2.79410
H    -0.59124  -1.82882  -2.10240
H    -3.44115   0.41226  -1.50249
H    -5.37310   1.03201  -0.10204
H    -5.17482   1.04604   2.38626
H    -3.00843   0.41414   3.45574
H    -1.08068  -0.23451   2.07611
