35
Generated by autodE on: 2022-06-13. E = -1564.928626 Ha
C    -2.42290  -1.87038   3.64647
O    -2.10785  -1.25052   2.38703
C    -1.66297   0.00153   2.42574
O    -1.48992   0.64054   3.43627
C    -1.40753   0.52551   1.00041
C    -2.78330   0.57071   0.31082
O    -3.76149   1.01895   0.86859
O    -2.76151   0.12111  -0.93353
C    -3.99751   0.18363  -1.66999
C    -0.43148  -0.28475   0.28481
C     0.50757  -0.55004  -0.43072
C     1.64039  -0.27817  -1.29034
Cl    1.60039  -1.34387  -2.78930
C     2.97089  -0.61998  -0.58453
F     4.02436  -0.35618  -1.36463
F     3.02700  -1.91181  -0.23843
F     3.10878   0.10085   0.53996
C     1.55458   1.20500  -1.73674
C     1.21440   2.25117  -0.65277
C    -0.27975   2.50754  -0.30786
C    -0.81802   1.97299   1.03486
H    -3.22169  -1.31053   4.15316
H    -2.76014  -2.88458   3.40567
H    -1.53023  -1.90463   4.28659
H    -4.76854  -0.41381  -1.16409
H    -4.33189   1.22678  -1.75687
H    -3.77603  -0.23237  -2.65892
H     2.51372   1.45481  -2.21412
H     0.78745   1.24050  -2.52327
H     1.61947   3.19617  -1.04518
H     1.78248   2.05101   0.26755
H    -0.41109   3.59897  -0.26278
H    -0.92296   2.17084  -1.13758
H    -0.01884   1.97611   1.79011
H    -1.61730   2.62756   1.41169
