63
Generated by autodE on: 2022-06-13. E = -2289.695007 Ha. Imaginary frequency = -224.3 cm-1
C    15.03226 -21.35084   5.87032
O    14.76563 -20.52145   4.72911
C    14.12658 -21.07105   3.70445
O    13.66893 -22.20061   3.69361
C    14.03159 -20.15012   2.54002
C    13.93533 -18.75360   2.84476
N    13.79369 -17.62942   3.11054
N    13.15499 -20.65786   1.59254
C    12.98900 -20.26467   0.33364
C    13.15392 -18.82949  -0.06241
C    12.18569 -21.17389  -0.51177
C    11.34737 -20.65924  -1.51680
C    10.56901 -21.51479  -2.29712
C    10.62271 -22.89659  -2.09516
C    11.46356 -23.42060  -1.10677
C    12.23778 -22.56883  -0.32321
C    15.52766 -20.60968   0.16333
C    15.87627 -20.41906   1.35947
C    17.13971 -20.42369   2.17071
C    17.51064 -21.88281   2.50835
O    18.61640 -22.35933   2.38806
O    16.45892 -22.55137   2.96194
C    16.65166 -23.91704   3.35553
C    17.14854 -19.68159   3.51113
O    17.66338 -20.13106   4.51508
O    16.66056 -18.45791   3.40626
C    16.67936 -17.63576   4.58394
C    18.31248 -19.77660   1.35640
C    17.96264 -18.53635   0.51366
C    17.93356 -18.77675  -1.00400
C    16.66829 -19.34583  -1.65307
C    16.13741 -20.70784  -1.16638
Cl   17.54333 -21.97171  -1.12107
C    15.22059 -21.31342  -2.25067
F    14.20870 -20.47376  -2.53412
F    15.87037 -21.52251  -3.40652
F    14.69249 -22.48326  -1.87373
H    14.09287 -21.74539   6.28129
H    15.69557 -22.17920   5.58705
H    15.52767 -20.70266   6.60081
H    12.89860 -21.62416   1.81573
H    13.97984 -18.34030   0.45864
H    12.22347 -18.28421   0.17607
H    13.32900 -18.74999  -1.13943
H    11.28999 -19.58419  -1.68702
H     9.91679 -21.09768  -3.06751
H    10.01773 -23.56552  -2.71142
H    11.52663 -24.50022  -0.95484
H    12.92360 -23.00386   0.40704
H    17.00434 -24.51141   2.50069
H    17.38080 -23.97761   4.17587
H    15.66970 -24.26982   3.68879
H    16.07507 -18.09942   5.37550
H    16.24206 -16.67736   4.28623
H    17.71255 -17.49926   4.93246
H    18.72277 -20.56037   0.71175
H    19.10876 -19.53897   2.07729
H    18.74084 -17.78120   0.70135
H    17.01902 -18.08028   0.84859
H    18.09810 -17.80900  -1.50467
H    18.79335 -19.40762  -1.28201
H    16.85755 -19.42240  -2.73400
H    15.83424 -18.63905  -1.52123
