37
Generated by autodE on: 2022-06-17. E = -822.624611 Ha
C     1.18334   2.40390   0.74862
N     0.02803   1.52003   0.57024
N    -1.05112   2.25901  -0.02504
C    -2.11958   2.45793   0.73139
N    -3.05590   2.70190   1.38994
C    -1.18707   1.98790  -1.48207
C     0.00596   1.07868  -1.75478
C     0.22402   0.38825  -0.38663
C    -0.85865  -0.67968  -0.15264
C    -1.64784  -0.70344   1.00376
C    -2.60235  -1.70860   1.19610
C    -2.77617  -2.70951   0.23799
C    -1.98178  -2.70169  -0.91412
C    -1.03260  -1.69626  -1.10528
C     1.58488  -0.27256  -0.19862
C     1.90505  -0.83311   1.04969
C     3.13163  -1.46356   1.25511
C     4.05602  -1.56092   0.20760
C     3.73980  -1.02124  -1.03999
C     2.51232  -0.37804  -1.24139
H     1.61010   2.77956  -0.19875
H     1.96555   1.87179   1.30346
H     0.86175   3.26217   1.35386
H    -2.14372   1.48023  -1.67271
H    -1.15539   2.92392  -2.05562
H     0.88968   1.67444  -2.01764
H    -0.18805   0.37800  -2.57423
H    -1.51220   0.06698   1.76165
H    -3.21177  -1.70532   2.10319
H    -3.52196  -3.49384   0.38761
H    -2.10025  -3.48399  -1.66780
H    -0.40952  -1.71280  -2.00211
H     1.18358  -0.77415   1.86698
H     3.36642  -1.88685   2.23469
H     5.01510  -2.06000   0.36507
H     4.44995  -1.09690  -1.86692
H     2.28717   0.03659  -2.22406
