37
Generated by autodE on: 2022-06-17. E = -822.558577 Ha. Imaginary frequency = -421.1 cm-1
C     0.99055   2.44604   0.37995
N    -0.08597   1.45575   0.32824
N    -1.32567   1.90914   0.01201
C    -1.68287   3.11168   0.40178
N    -2.13088   4.16000   0.68967
C    -1.35429   1.61384  -2.07570
C    -0.35189   0.66096  -2.22812
C     0.13318   0.18261  -0.12704
C    -0.93439  -0.83797   0.14744
C    -1.85416  -0.68337   1.19762
C    -2.77566  -1.69125   1.49242
C    -2.79558  -2.87310   0.74678
C    -1.87200  -3.04525  -0.28961
C    -0.94860  -2.04111  -0.58011
C     1.53675  -0.35393  -0.07559
C     1.83976  -1.36314   0.85849
C     3.13157  -1.88114   0.96249
C     4.14717  -1.40977   0.12593
C     3.86004  -0.40958  -0.80711
C     2.57014   0.11540  -0.90496
H     1.22102   2.81861  -0.63166
H     1.88521   2.00651   0.83012
H     0.65843   3.28495   1.00442
H    -2.40583   1.32086  -2.09584
H    -1.15423   2.66739  -2.28545
H    -0.61793  -0.36363  -2.48515
H     0.63268   0.99341  -2.55864
H    -1.84702   0.22643   1.79636
H    -3.48035  -1.55009   2.31547
H    -3.52034  -3.65790   0.97553
H    -1.86709  -3.96835  -0.87392
H    -0.22186  -2.19524  -1.37959
H     1.05648  -1.73988   1.51733
H     3.34304  -2.65812   1.70071
H     5.15708  -1.81973   0.20030
H     4.64454  -0.03292  -1.46739
H     2.37329   0.89816  -1.63539
