25
Generated by autodE on: 2022-07-27. E = -701.697173 Ha
C     4.04442  -1.45172   0.15228
N     2.65108  -1.08307   0.31386
C     2.19607   0.12161  -0.09236
O     2.92867   0.94204  -0.66669
C     0.76206   0.43497   0.11019
C     0.22732   1.40563  -0.76082
N    -0.19164   2.24777  -1.45315
N    -0.02415  -0.06804   1.11380
C     0.60483  -0.46488   2.39975
C    -1.35214  -0.15898   1.07347
C    -2.13910  -0.25780  -0.14808
O    -1.71426  -0.39041  -1.28568
O    -3.45181  -0.26323   0.15366
C    -4.35537  -0.45746  -0.94038
H     4.70178  -0.67725   0.57445
H     4.31228  -1.58198  -0.90960
H     4.22347  -2.39657   0.68011
H     1.99891  -1.79479   0.62255
H     1.57940   0.01830   2.50267
H     0.70003  -1.55731   2.44610
H    -0.05698  -0.13202   3.20769
H    -1.86460  -0.30585   2.02207
H    -5.36372  -0.40419  -0.51367
H    -4.22147   0.32899  -1.69773
H    -4.19396  -1.44062  -1.40726
