14
Generated by autodE on: 2022-06-04. E = -859.428374 Ha
N     2.96848  -1.30290  -0.50512
C     1.90050  -0.94598  -0.20233
C     0.60989  -0.53511   0.17498
C     0.01881   0.66862   0.03300
Cl    0.62578   2.10264  -0.65702
C    -1.43448   0.48494   0.53122
C    -2.13992  -0.40982  -0.51162
C    -1.57566  -1.61161  -0.36509
C    -0.53165  -1.43053   0.75677
O    -1.19203  -0.45955   1.58264
H    -1.94564   1.38970   0.87442
H    -2.88576  -0.06415  -1.22567
H    -1.73499  -2.53220  -0.92480
H    -0.20860  -2.31418   1.31502
