39
Generated by autodE on: 2022-06-04. E = -1561.121582 Ha. Imaginary frequency = -274.6 cm-1
C     4.46481  -2.87357  -0.74673
N     3.02726  -2.69269  -0.84190
C     2.48180  -1.47128  -0.93848
O     3.15213  -0.43951  -1.04280
C     0.97116  -1.39178  -0.98638
C     0.50062  -0.96514  -2.25246
N     0.24759  -0.57680  -3.32449
C     0.10417   0.94345  -0.38968
C     0.90506   1.29619   0.87069
O     0.33646   0.39463   1.82691
C    -1.03069   0.76238   1.60571
C    -0.93107   2.29732   1.86021
C    -1.94319   3.13906   2.35415
N    -2.79320   3.81916   2.77259
C     0.29239   2.61772   1.38516
Cl    1.01920   4.14929   1.21059
C    -1.13659   0.55862   0.07798
C    -1.15570  -1.72203   0.03859
C    -2.04660  -1.98208  -1.10235
O    -1.73754  -2.52669  -2.14755
O    -3.30017  -1.59159  -0.81864
C    -4.29228  -1.84674  -1.82126
N     0.18400  -1.93789  -0.01899
C     0.82926  -2.42037   1.21933
H     4.87138  -2.34094   0.12727
H     4.97190  -2.49136  -1.64627
H     4.67911  -3.94393  -0.64401
H     2.42358  -3.50765  -0.80299
H     0.35353   1.32657  -1.37474
H     1.99677   1.24430   0.82641
H    -1.72194   0.21608   2.25360
H    -2.07987   0.63957  -0.45847
H    -1.61179  -1.92623   1.00655
H    -5.23671  -1.46603  -1.41554
H    -4.04138  -1.32125  -2.75425
H    -4.37297  -2.92523  -2.02134
H     1.72148  -1.83127   1.45032
H     1.09453  -3.48007   1.10279
H     0.11822  -2.32149   2.04376
