46
Generated by autodE on: 2022-06-05. E = -1259.589966 Ha
C     3.31912   1.33557  -2.24590
C     2.79022   0.50170  -1.11954
O     3.39459   0.27847  -0.08123
N     1.54166  -0.09471  -1.31784
C     0.77769  -0.54620  -0.17880
C    -0.38208   0.14781  -0.15479
N    -0.41405   0.91926  -1.35163
C    -1.09340   2.01989  -1.63067
N    -1.72030   2.95639  -1.93638
N     0.64619   0.49545  -2.23600
C     0.12506  -0.49516  -3.18694
C    -1.58454   0.22770   0.75538
C    -1.65908   1.66156   1.34821
C    -2.87017   2.07421   2.13284
O    -0.71488   2.41758   1.20594
C    -2.84062  -0.13413  -0.09492
C    -2.78067  -1.41633  -0.88023
O    -3.81129   0.59325  -0.13350
C    -1.56549  -0.76381   1.96209
C    -0.60573  -0.43561   3.11320
C     0.86993  -0.19641   2.78408
C     1.64378  -1.33575   2.12467
C     1.25918  -1.69527   0.67361
F     0.25109  -2.68976   0.69220
C     2.39490  -2.38549   0.02163
N     3.25250  -3.00796  -0.44601
H     2.74041   2.26938  -2.31626
H     3.22171   0.81260  -3.20774
H     4.37117   1.56985  -2.04299
H    -0.29942  -1.37815  -2.68247
H     0.95789  -0.79855  -3.83470
H    -0.64387  -0.00337  -3.79743
H    -3.44584   1.23102   2.53061
H    -2.55071   2.74771   2.94038
H    -3.52686   2.63772   1.45147
H    -3.77324  -1.88784  -0.87643
H    -2.01351  -2.11362  -0.52514
H    -2.54098  -1.14968  -1.92313
H    -2.58621  -0.78522   2.37002
H    -1.37157  -1.76801   1.57816
H    -0.68186  -1.27170   3.82836
H    -0.97396   0.45256   3.65194
H     1.38496   0.01438   3.73476
H     0.98725   0.71449   2.17846
H     1.56526  -2.27135   2.70052
H     2.70477  -1.05401   2.10371
