15
Generated by autodE on: 2022-06-05. E = -450.374474 Ha
C     2.61088  -0.30252   0.32505
C     1.30423  -0.12978  -0.37665
O     1.07774   0.69909  -1.24194
N     0.34963  -1.11345  -0.03959
N    -0.89709  -0.85568   0.00517
C    -1.80761  -2.01783  -0.07430
N    -1.52820   0.27206   0.18626
C    -0.85916   1.36610   0.50327
N    -0.42084   2.39495   0.85052
H     3.36053   0.37188  -0.10667
H     2.47006  -0.06783   1.39368
H     2.94591  -1.34836   0.26096
H    -1.24139  -2.86954  -0.45916
H    -2.63692  -1.74647  -0.73715
H    -2.18852  -2.21717   0.93619
