46
Generated by autodE on: 2022-06-05. E = -1259.497192 Ha. Imaginary frequency = -261.5 cm-1
C     3.02095   2.15440  -1.50342
C     2.66472   0.81322  -0.91870
O     3.22920   0.34829   0.05370
N     1.71391   0.02568  -1.60692
C     0.63055  -0.72644   0.03276
C    -0.28848   0.07081   0.28758
N     0.08051   1.51117  -1.55777
C    -1.02497   2.01552  -2.09147
N    -2.00757   2.54121  -2.44623
N     0.73156   0.58217  -2.23267
C     0.07607  -0.22077  -3.27213
C    -1.45051   0.47697   1.09299
C    -1.82717   1.98346   0.92768
C    -3.27890   2.34947   0.93111
O    -0.93860   2.80689   0.86699
C    -2.65419  -0.44392   0.71938
C    -2.83844  -0.81576  -0.72207
O    -3.40734  -0.83065   1.58987
C    -1.10975   0.32221   2.61304
C    -0.39691  -0.98376   3.00025
C     1.14342  -0.94247   2.83224
C     1.78354  -1.96753   1.89461
C     1.19341  -2.02473   0.46686
F     0.11886  -2.94401   0.46989
C     2.18076  -2.60208  -0.47018
N     2.95372  -3.11604  -1.16340
H     4.08973   2.33083  -1.32368
H     2.44860   2.92557  -0.96470
H     2.79262   2.23193  -2.57352
H    -0.65092  -0.88810  -2.78348
H     0.84868  -0.80152  -3.78416
H    -0.43632   0.44627  -3.97574
H    -3.78706   1.89840   1.79658
H    -3.38670   3.44112   0.94791
H    -3.76210   1.94503   0.02684
H    -3.84396  -1.22930  -0.87028
H    -2.08923  -1.58054  -0.98224
H    -2.67071   0.04577  -1.38344
H    -2.06120   0.41218   3.15362
H    -0.48307   1.17766   2.90309
H    -0.63159  -1.17414   4.05824
H    -0.83241  -1.82881   2.44634
H     1.62163  -1.08693   3.81342
H     1.45102   0.06116   2.50087
H     2.85655  -1.74677   1.81055
H     1.69071  -2.99434   2.28231
