42
Generated by autodE on: 2022-06-01. E = -1186.061028 Ha
C     2.66224  -2.66800  -1.54277
N     1.77640  -1.57221  -1.19672
C     2.09338  -0.71162  -0.22476
O     3.17529  -0.74891   0.37243
C     1.06918   0.34009   0.23852
C     1.75844   1.74343   0.25489
C     2.34607   2.00619  -1.14903
C     1.08194   2.20130  -2.03236
C    -0.07342   2.12398  -1.01185
C     0.56824   2.71807   0.25434
C    -0.23445   0.66031  -0.59338
F    -0.43833  -0.14520  -1.71343
C    -1.42159   0.37043   0.40327
C    -2.38569   1.47931   0.50145
N    -3.14368   2.34853   0.60954
C    -2.15814  -0.91504  -0.06279
O    -1.84689  -2.01152   0.32831
O    -3.11431  -0.63350  -0.92645
C    -3.82771  -1.74779  -1.49980
O    -0.86422   0.19516   1.68328
C     0.52928  -0.13584   1.64681
C     1.19549   0.49683   2.86512
C     0.66406  -1.61061   1.80609
N     0.81769  -2.74002   2.01733
H     3.66342  -2.29592  -1.80569
H     2.76781  -3.36980  -0.69919
H     2.24275  -3.20371  -2.40263
H     0.85891  -1.51979  -1.62274
H     2.48939   1.84860   1.06078
H     3.00221   1.20068  -1.50283
H     2.94971   2.92398  -1.11280
H     1.07197   3.18603  -2.51884
H     0.98467   1.44045  -2.81745
H    -1.01492   2.56627  -1.35756
H     0.88335   3.75974   0.10206
H    -0.06232   2.67820   1.15203
H    -4.57125  -1.31016  -2.17424
H    -4.31811  -2.32767  -0.70612
H    -3.12948  -2.38831  -2.05639
H     2.26667   0.25662   2.86129
H     0.73896   0.09172   3.77883
H     1.05863   1.58408   2.84997
