24
Generated by autodE on: 2022-06-01. E = -580.266521 Ha
C     3.65262  -0.82132  -0.44575
N     2.36872  -0.15695  -0.35573
C     1.34969  -0.68100   0.36152
O     1.47685  -1.73891   1.00142
C     0.07207   0.05277   0.35975
C    -0.38698   1.02042  -0.45827
F     0.28007   1.61369  -1.45445
C    -1.85941   1.23365  -0.24635
C    -2.54859  -0.05649  -0.81277
C    -2.06744  -1.16952   0.16311
C    -1.15295  -0.38673   1.15715
C    -1.92481   0.94616   1.27013
H     3.56359  -1.81611  -0.91275
H     4.32840  -0.20746  -1.05377
H     4.10209  -0.95892   0.55056
H     2.21387   0.69135  -0.88864
H    -2.25979   2.18252  -0.62278
H    -3.64040   0.06946  -0.77675
H    -2.26343  -0.24133  -1.85798
H    -1.51267  -1.97410  -0.33971
H    -2.91379  -1.62416   0.69910
H    -0.92134  -0.92062   2.08606
H    -2.95493   0.82305   1.63647
H    -1.39849   1.70003   1.87323
