18
Generated by autodE on: 2022-06-01. E = -605.699630 Ha
C     3.46095   1.16807   0.94238
O     2.06452   0.92631   0.71861
C     1.76077  -0.12122  -0.05517
O     2.58562  -0.86218  -0.56843
C     0.32679  -0.30632  -0.23175
C    -0.16064  -1.36819  -1.01414
N    -0.52862  -2.25727  -1.67631
O    -0.46940   0.57742   0.37330
C    -1.73934   0.74642   0.48338
C    -2.21201   1.91921   1.25712
C    -2.66863  -0.15452  -0.10828
N    -3.50663  -0.83636  -0.54396
H     3.97555   1.36903  -0.00847
H     3.92836   0.30311   1.43495
H     3.51220   2.04795   1.59394
H    -1.34847   2.46017   1.66495
H    -2.87385   1.59296   2.07657
H    -2.79900   2.59001   0.60672
