40
Generated by autodE on: 2022-06-11. E = -1292.154580 Ha
C     4.59405   1.71857  -1.60075
N     3.21799   1.36444  -1.31755
C     2.89697   0.29813  -0.57112
O     3.71414  -0.43832  -0.01305
C     1.41985   0.03964  -0.45151
N     0.58398   0.44938  -1.33914
C    -0.74863   0.02320  -0.93649
C    -1.41811  -0.80008  -2.06938
C    -1.12574  -0.38348  -3.47534
O    -2.17153  -1.70669  -1.78089
C    -1.63729   1.25355  -0.64437
C    -1.03932   2.45438  -0.23759
C    -1.82958   3.56536   0.06489
C    -3.22152   3.49098  -0.04104
C    -3.81890   2.29474  -0.44584
C    -3.03315   1.17814  -0.74300
C    -0.54166  -0.79802   0.33311
C    -1.65089  -1.47281   1.08840
C    -1.64032  -2.97225   1.13239
O    -2.52151  -0.79231   1.60161
C     0.77481  -0.73526   0.63104
C     1.43843  -1.28245   1.86074
F     2.16792  -2.38190   1.61106
F     2.24708  -0.37657   2.43177
F     0.52220  -1.62756   2.79040
H     5.19767   1.64839  -0.68483
H     4.63041   2.74873  -1.97535
H     5.04035   1.05014  -2.35610
H     2.46254   1.85343  -1.78902
H    -1.17804   0.71055  -3.57468
H    -0.09549  -0.68138  -3.72766
H    -1.83062  -0.87295  -4.15933
H     0.04535   2.52576  -0.15447
H    -1.35097   4.49485   0.38164
H    -3.83790   4.36243   0.19120
H    -4.90562   2.22335  -0.52982
H    -3.51882   0.24943  -1.04176
H    -0.63438  -3.36449   1.33591
H    -2.36071  -3.32874   1.88074
H    -1.93511  -3.33646   0.13527
