40
Generated by autodE on: 2022-06-11. E = -1292.041437 Ha. Imaginary frequency = -163.8 cm-1
C     4.66189   1.66201  -1.39008
N     3.31032   1.40784  -0.92120
C     2.58802   0.38729  -1.39198
O     2.93530  -0.40964  -2.26265
C     1.25431   0.18935  -0.76183
N     0.11788   0.29658  -1.13846
C    -1.17712   0.15789  -1.18855
C    -1.66398  -1.07701  -1.87063
C    -0.62407  -1.99839  -2.45301
O    -2.85692  -1.35036  -1.90017
C    -2.02446   1.21808  -0.61271
C    -1.47109   2.08644   0.35130
C    -2.25150   3.07504   0.94543
C    -3.59646   3.22216   0.58530
C    -4.15005   2.37246  -0.37583
C    -3.37568   1.37611  -0.97371
C    -0.28178  -1.43012   1.20189
C    -1.61825  -1.94903   1.11211
C    -2.72646  -1.11449   1.69707
O    -1.83087  -3.04288   0.58775
C     0.86866  -0.99376   1.21843
C     2.17266  -0.71711   1.83809
F     3.19674  -1.17752   1.09696
F     2.36975   0.60649   2.00391
F     2.26721  -1.28772   3.04796
H     4.69960   1.61227  -2.48700
H     4.96571   2.66457  -1.06641
H     5.37132   0.92302  -0.98298
H     2.95458   1.92801  -0.12351
H    -1.12592  -2.76542  -3.05549
H    -0.08223  -2.49132  -1.62842
H     0.11954  -1.45960  -3.05680
H    -0.42764   1.97261   0.65141
H    -1.80903   3.73326   1.69650
H    -4.20806   3.99796   1.05149
H    -5.19692   2.48408  -0.66727
H    -3.81758   0.71704  -1.71683
H    -3.18349  -1.67812   2.52669
H    -3.49574  -0.97256   0.92219
H    -2.38220  -0.13854   2.06006
