23
Generated by autodE on: 2022-07-27. E = -642.467954 Ha
C     2.24107   3.76234   0.88503
N     1.16981   2.81294   0.66319
C     1.42116   1.52555   0.36629
O     2.55329   1.05395   0.23964
N     0.23060   0.76493   0.33062
N     0.13546  -0.20926  -0.49235
C     1.07096  -0.36328  -1.64779
C    -0.85990  -1.13607  -0.36836
C    -0.95462  -2.14476  -1.36000
N    -1.08150  -3.00508  -2.13730
C    -1.81823  -1.18154   0.75981
C    -2.81918  -2.31252   0.71900
O    -1.81387  -0.37107   1.67723
H     2.94272   3.76474   0.03732
H     2.81179   3.52368   1.79804
H     1.81003   4.76504   0.99045
H     0.20595   3.08893   0.82055
H     1.89591  -1.01972  -1.34871
H     0.51965  -0.79757  -2.48586
H     1.45117   0.62096  -1.92863
H    -2.30881  -3.28850   0.71444
H    -3.43119  -2.25981  -0.19534
H    -3.46764  -2.24075   1.60101
