49
Generated by autodE on: 2022-06-23. E = -1331.909722 Ha. Imaginary frequency = -414.7 cm-1
C     3.66055   2.69365   1.71392
N     2.55576   2.00688   1.07409
C     2.53424   0.66936   1.00594
O     3.44671  -0.04630   1.42910
N     1.34760   0.07453   0.49603
N     1.48009  -1.12204  -0.06346
C     2.49511  -1.33470  -1.11330
C     0.34801  -1.87859  -0.01608
C     0.13653  -2.80827  -1.07135
N    -0.09022  -3.53992  -1.94758
C    -0.43875  -2.05514   1.24635
C    -1.51597  -3.10582   1.20098
O    -0.19705  -1.41128   2.25448
C    -0.73475   0.07930  -1.21515
O    -0.30152  -0.25499  -2.44124
C    -1.19219  -0.53991  -3.53219
C    -2.03883  -0.32183  -0.69115
O    -2.76777  -1.11258  -1.30071
C    -2.46957   0.23794   0.63104
C    -3.71114  -0.32925   1.24138
C    -1.76036   1.21338   1.25641
C    -2.16092   1.76814   2.58793
C    -0.58744   1.80626   0.58715
O    -0.14058   2.89922   0.91036
C     0.09197   1.03857  -0.53035
O     0.95653   1.77499  -1.30595
C     0.34218   2.71723  -2.19515
H     3.77957   2.37679   2.76231
H     3.45864   3.77155   1.69211
H     4.61172   2.50227   1.19191
H     1.77492   2.55031   0.71339
H     2.62481  -2.41052  -1.27370
H     3.44051  -0.90999  -0.76382
H     2.17719  -0.84445  -2.04239
H    -2.07119  -3.09313   2.14641
H    -2.20109  -2.93606   0.35625
H    -1.06077  -4.09865   1.05362
H    -2.00557   0.19833  -3.57153
H    -1.60511  -1.55133  -3.45537
H    -0.57320  -0.45313  -4.43442
H    -4.18199  -1.06441   0.57982
H    -3.47496  -0.81250   2.20382
H    -4.43639   0.47081   1.46165
H    -2.13999   0.96944   3.34766
H    -1.48709   2.57405   2.90239
H    -3.19097   2.15931   2.56353
H    -0.23764   3.46639  -1.63533
H     1.16427   3.21544  -2.72470
H    -0.30879   2.21226  -2.92414
