19
Generated by autodE on: 2022-07-26. E = -473.725364 Ha
C     2.31235  -0.35535   1.31002
N     1.34549  -0.41098   0.23078
C     0.12080  -0.94596   0.40917
O    -0.17677  -1.61170   1.41090
C    -0.85217  -0.79957  -0.70833
C    -1.68037  -1.99440  -1.05009
N    -1.04770   0.33280  -1.36212
C    -0.64070   1.62976  -1.20830
C    -0.02040   2.12813  -0.06554
N     0.49127   2.58655   0.88758
H     2.52861  -1.36288   1.69500
H     1.94243   0.26142   2.14570
H     3.24181   0.08597   0.93051
H     1.52228   0.15111  -0.59525
H    -1.04550  -2.87531  -1.23982
H    -2.30399  -1.80729  -1.93655
H    -2.34489  -2.25187  -0.20776
H    -1.68227   0.23135  -2.15955
H    -0.95542   2.31365  -1.99404
