39
Generated by autodE on: 2022-05-31. E = -1101.515335 Ha. Imaginary frequency = -269.6 cm-1
C     5.16117  -0.74373   0.78792
N     4.13434  -0.82115  -0.23245
C     2.88236  -1.23694   0.04773
O     2.59267  -1.80502   1.10788
C     1.88225  -1.08319  -1.06134
C     1.30964  -2.36578  -1.58150
N     1.88561  -0.01288  -1.87078
C     2.08154   1.30364  -1.58134
C     2.92913   1.79278  -0.57149
N     3.59304   2.27748   0.26198
C     0.21615   1.23046   0.11633
C    -0.92951   1.56212  -0.85719
O    -0.98857   0.36003  -1.63348
C    -1.10761  -0.53967  -0.51602
C    -2.34738   0.06361   0.17217
C    -3.34344  -0.63610   0.99656
O    -4.32257  -0.10817   1.49104
O    -3.03572  -1.92868   1.13908
C    -3.92735  -2.71921   1.93932
C    -2.24882   1.39416  -0.04446
C    -3.06485   2.44219   0.43046
N    -3.70810   3.34504   0.78953
C     0.11475  -0.11864   0.32610
H     5.18962  -1.67360   1.37206
H     4.97308   0.09696   1.47737
H     6.13537  -0.59400   0.30617
H     4.30892  -0.35122  -1.11440
H     2.09938  -3.00517  -2.01437
H     0.54717  -2.18124  -2.35111
H     0.85263  -2.92752  -0.75428
H     1.29770  -0.13036  -2.69646
H     1.80374   1.99801  -2.37431
H     0.71071   1.97076   0.74051
H    -0.85270   2.46261  -1.47276
H    -1.19483  -1.58302  -0.82769
H    -3.51176  -3.73303   1.94215
H    -3.97486  -2.32205   2.96354
H    -4.93541  -2.71946   1.50024
H     0.50363  -0.70122   1.15674
