42
Generated by autodE on: 2022-05-31. E = -3477.729104 Ha
C     1.06209  -2.02747   1.82759
C     0.68390  -1.96454   0.37333
O     0.23282  -2.94611  -0.21118
C     0.92552  -0.72648  -0.39098
C     1.68857   0.36626  -0.17312
Br    2.62003   0.95512   1.34026
C     1.68880   1.16805  -1.47072
O     1.56170   0.11704  -2.43861
C     0.42170  -0.51788  -1.81806
C    -0.61186   0.65943  -1.87845
C     0.31527   1.88197  -1.63812
C    -0.28390   2.62792  -0.45229
N    -1.18228   1.68133   0.19818
C    -2.10859   2.34587   1.09551
C    -1.76048   0.78982  -0.83470
C    -2.97641   1.43494  -1.53744
C    -2.17367  -0.56298  -0.25297
C    -2.05300  -0.86871   1.10986
C    -2.44721  -2.11555   1.60704
C    -2.95416  -3.08961   0.74613
C    -3.06492  -2.80371  -0.61962
C    -2.68560  -1.55303  -1.10932
H     0.67527  -2.95897   2.26025
H     0.67717  -1.16123   2.38333
H     2.16054  -2.01732   1.92254
H     2.57438   1.78702  -1.65100
H     0.13470  -1.42968  -2.34843
H    -1.02859   0.65747  -2.89227
H     0.39089   2.52646  -2.52224
H     0.47253   2.99693   0.26062
H    -0.82949   3.52251  -0.81934
H    -2.67592   3.16653   0.60869
H    -1.55105   2.79173   1.93555
H    -2.83535   1.63829   1.51593
H    -3.81929   1.55782  -0.84254
H    -3.31841   0.81570  -2.37808
H    -2.70809   2.42509  -1.93836
H    -1.62547  -0.13388   1.78867
H    -2.33903  -2.32752   2.67350
H    -3.25384  -4.06726   1.13096
H    -3.44739  -3.56083  -1.30865
H    -2.77441  -1.35111  -2.17889
