18
Generated by autodE on: 2022-05-31. E = -3033.824581 Ha
C     2.69555   0.61357   0.53636
C     1.52048   1.53994   0.38776
O     1.60318   2.73579   0.66266
C     0.23615   1.01401  -0.08853
C    -0.27408  -0.21974  -0.27985
Br    0.45388  -1.92250  -0.05980
C    -1.76989  -0.01409  -0.63117
C    -2.45216   0.48443   0.66269
C    -1.96599   1.71531   0.84536
C    -0.98994   1.93768  -0.32893
O    -1.66089   1.20516  -1.37299
H     3.58884   1.19863   0.79104
H     2.49981  -0.11679   1.33821
H     2.87040   0.04282  -0.38845
H    -2.25467  -0.81738  -1.19532
H    -3.12824  -0.10593   1.27948
H    -2.13646   2.42116   1.65725
H    -0.75765   2.96675  -0.61758
