24
Generated by autodE on: 2022-05-31. E = -443.787631 Ha
C    -3.31706   0.53017  -0.14435
N    -2.08189  -0.00121  -0.10680
C    -2.03144  -1.44505  -0.42421
C    -0.96141   0.66691   0.27650
C    -1.18658   2.04565   0.80416
C     0.38869   0.14541   0.08999
C     1.40115   0.45890   1.03515
C     2.71013   0.00736   0.88368
C     3.07261  -0.77801  -0.21849
C     2.09797  -1.08538  -1.17354
C     0.78785  -0.62611  -1.03219
H    -3.46553   1.59203   0.02037
H    -4.15103  -0.13351  -0.35608
H    -1.15815  -1.90777   0.04277
H    -2.00053  -1.59984  -1.50991
H    -2.93979  -1.91048  -0.02424
H    -0.25723   2.49318   1.17478
H    -1.58803   2.72333   0.02247
H    -1.93717   2.05137   1.61995
H     1.14379   1.05053   1.91603
H     3.45545   0.26226   1.64193
H     4.09862  -1.13442  -0.33492
H     2.36366  -1.67480  -2.05534
H     0.07223  -0.83971  -1.82587
