42
Generated by autodE on: 2022-05-31. E = -3477.615017 Ha. Imaginary frequency = -245.5 cm-1
C     1.41358  -1.17579   2.49078
C     1.06158  -1.45952   1.05370
O     0.49328  -2.50550   0.73534
C     1.43728  -0.50363   0.01114
C     1.88551   0.77198   0.00574
Br    2.24970   1.98052   1.38935
C     2.10049   1.14545  -1.46669
O     2.58128  -0.13317  -1.94421
C     1.40144  -0.86299  -1.49346
C     0.28889  -0.07141  -2.19772
C     0.71982   1.23175  -2.14723
C    -0.95350   2.30116  -0.63803
N    -1.49099   1.14138  -0.19671
C    -1.30707   0.84141   1.23084
C    -1.97973   0.19545  -1.04155
C    -2.52668   0.64643  -2.36970
C    -2.57631  -1.05980  -0.51025
C    -2.22723  -2.29333  -1.09336
C    -2.80412  -3.48605  -0.65546
C    -3.75085  -3.47611   0.37472
C    -4.12422  -2.25819   0.94999
C    -3.55169  -1.06334   0.50586
H     1.14760  -2.04684   3.10374
H     0.87027  -0.29370   2.86167
H     2.48835  -0.96026   2.59310
H     2.80652   1.95990  -1.65991
H     1.47139  -1.93306  -1.71095
H    -0.37405  -0.53402  -2.92060
H     0.46849   2.05119  -2.81405
H    -0.53298   2.96216   0.11759
H    -1.35102   2.74678  -1.54367
H    -0.42086   1.36536   1.59808
H    -1.19867  -0.23304   1.39243
H    -2.17695   1.19848   1.79904
H    -3.47693   1.19576  -2.21567
H    -2.75075  -0.22541  -2.99847
H    -1.85367   1.30552  -2.93183
H    -1.47827  -2.31380  -1.88659
H    -2.50517  -4.43110  -1.11564
H    -4.19782  -4.41047   0.72245
H    -4.87483  -2.23387   1.74408
H    -3.87553  -0.12002   0.94852
