12
Generated by autodE on: 2022-06-19. E = -157.299004 Ha
C     1.50031  -0.72590   0.21397
C     0.74802   0.53373  -0.09584
C    -0.58239   0.69481  -0.17669
C    -1.64455  -0.34458   0.02349
H     2.19362  -0.98023  -0.60717
H     2.12696  -0.59704   1.11425
H     0.84176  -1.59023   0.38081
H     1.37301   1.41787  -0.27502
H    -0.95316   1.69948  -0.41678
H    -2.33067  -0.05154   0.83777
H    -1.23655  -1.33641   0.26535
H    -2.26980  -0.44533  -0.88134
