29
Generated by autodE on: 2022-06-19. E = -800.015611 Ha
C     3.77868  -1.46694   0.55133
N     3.94129  -0.20510  -0.15249
C     2.99353   0.74027  -0.23304
O     3.05476   1.78030  -0.89341
C     1.79741   0.51235   0.60476
N     0.68451   0.12174   0.40433
C    -0.55287  -0.25518   0.26095
C    -0.84635  -1.66416   0.58616
O    -1.93274  -2.20452   0.46558
O     0.24418  -2.30956   1.03433
C     0.07832  -3.69125   1.37483
C    -1.53294   0.72309  -0.24743
C    -2.92324   0.52470  -0.13317
C    -3.81529   1.48750  -0.60963
C    -3.34730   2.66325  -1.20304
C    -1.96824   2.87038  -1.31842
C    -1.07019   1.91271  -0.85074
H     3.21710  -2.20515  -0.04310
H     3.24497  -1.30707   1.50007
H     4.76914  -1.87798   0.78299
H     4.75262  -0.07022  -0.75208
H     1.06174  -4.03693   1.71384
H    -0.24472  -4.27029   0.49739
H    -0.66249  -3.80539   2.17963
H    -3.30182  -0.38236   0.33269
H    -4.88969   1.31521  -0.50964
H    -4.05039   3.41190  -1.57509
H    -1.58672   3.78224  -1.78387
H     0.00259   2.08380  -0.96247
