41
Generated by autodE on: 2022-06-19. E = -957.311739 Ha. Imaginary frequency = -327.0 cm-1
C     4.36046   1.83241  -2.15871
N     3.13901   1.20286  -1.69044
C     2.60754   1.49531  -0.49379
O     3.08455   2.28149   0.32875
C     1.39195   0.73693  -0.13114
N     0.22254   0.72558  -0.43142
C    -0.98372   0.28503  -0.06992
C    -1.63170   1.00163   1.02856
O    -2.68037   0.67576   1.57271
O    -0.93817   2.09802   1.40745
C    -1.43040   2.79506   2.55409
C    -1.58974  -0.79837  -0.84850
C    -0.80303  -1.48091  -1.80452
C    -1.32369  -2.54832  -2.53325
C    -2.64295  -2.96866  -2.32951
C    -3.43201  -2.30211  -1.38753
C    -2.91910  -1.23044  -0.65456
C     0.37598  -0.84998   2.06125
C    -0.27219  -2.18121   1.83501
C     1.65402  -0.51983   1.67126
C     2.61154  -1.52184   1.07072
H     5.08357   1.90392  -1.33451
H     4.79031   1.22226  -2.96264
H     4.17452   2.84821  -2.54465
H     2.62730   0.58235  -2.31210
H    -1.43213   2.14068   3.43888
H    -2.45026   3.16826   2.37921
H    -0.74517   3.63639   2.71272
H     0.22858  -1.16947  -1.97819
H    -0.69258  -3.05717  -3.26589
H    -3.05062  -3.80630  -2.89994
H    -4.46453  -2.61763  -1.21831
H    -3.54351  -0.72578   0.07845
H    -0.14519  -0.15477   2.72456
H    -1.36875  -2.10253   1.88067
H     0.03651  -2.90974   2.60924
H    -0.00186  -2.61720   0.86058
H     2.10192   0.36480   2.13742
H     3.50183  -1.03112   0.65065
H     2.96045  -2.23496   1.83892
H     2.13907  -2.11143   0.27020
