54
Generated by autodE on: 2022-06-22. E = -1132.728820 Ha
C     4.90605   1.56981   1.62720
N     3.80513   1.49079   0.68385
C     2.57221   1.15121   1.07375
O     2.25671   0.99933   2.25502
C     1.49715   0.95900  -0.04833
C     1.71967   2.03209  -1.04129
N     1.90207   2.90173  -1.78819
N     0.18630   1.11726   0.56029
C    -0.72284   0.02640   0.16006
C    -1.77287  -0.15428   1.27177
C    -2.50410  -1.34336   1.43091
C    -3.50534  -1.45365   2.39814
C    -3.81057  -0.37193   3.22931
C    -3.10318   0.82146   3.07418
C    -2.10135   0.92906   2.10441
C    -1.54197   0.44788  -1.08421
C    -1.45069   1.74963  -1.59700
C    -2.21156   2.15287  -2.69915
C    -3.09993   1.26370  -3.30634
C    -3.23251  -0.02572  -2.78090
C    -2.47112  -0.42322  -1.68018
C     0.28115  -1.19898  -0.06786
C     0.65023  -1.79895   1.30379
C    -0.19340  -2.35798  -0.95257
C     1.54335  -0.49446  -0.72383
C     2.85857  -1.23411  -0.44455
C     1.42785  -0.38497  -2.25531
H     4.62542   2.19072   2.48949
H     5.18914   0.57064   1.99779
H     5.77060   2.02178   1.12631
H     4.01797   1.52857  -0.30845
H     0.33824   1.08565   1.56886
H    -2.29610  -2.20632   0.80212
H    -4.04889  -2.39595   2.50073
H    -4.59381  -0.45869   3.98603
H    -3.33192   1.68288   3.70650
H    -1.58148   1.87966   1.99025
H    -0.78034   2.46139  -1.12145
H    -2.10764   3.17248  -3.07884
H    -3.69442   1.57406  -4.16893
H    -3.94083  -0.72929  -3.22533
H    -2.62494  -1.42276  -1.27972
H     1.03656  -1.04820   2.00423
H     1.41393  -2.57877   1.18565
H    -0.22210  -2.27504   1.76625
H     0.64050  -3.06234  -1.09812
H    -0.53854  -2.04372  -1.94226
H    -1.00413  -2.92308  -0.47405
H     3.12526  -1.27946   0.61838
H     2.78314  -2.26690  -0.81655
H     3.68780  -0.75294  -0.98287
H     2.27225   0.19396  -2.65553
H     0.49861   0.09473  -2.58584
H     1.48093  -1.38375  -2.70762
