36
Generated by autodE on: 2022-07-27. E = -896.740073 Ha
C     5.44540   0.98006   0.53594
N     4.17910   0.87724  -0.16000
C     3.04332   0.53441   0.48406
O     3.01775   0.32896   1.71821
C     1.81216   0.40353  -0.29768
C     1.77707   0.52045  -1.69056
N     1.82971   0.62981  -2.85675
N     0.73730   0.03109   0.48085
C    -0.54581  -0.17286   0.26889
C    -1.33954  -0.76419   1.35419
C    -2.73290  -0.55191   1.40621
C    -3.49312  -1.08397   2.44680
C    -2.88267  -1.83906   3.45363
C    -1.50195  -2.06287   3.40971
C    -0.73693  -1.53809   2.36979
C    -1.17254   0.19720  -1.01536
C    -1.05327   1.50752  -1.51080
C    -1.67470   1.86494  -2.70744
C    -2.41164   0.91841  -3.42619
C    -2.53682  -0.38671  -2.93741
C    -1.92990  -0.74478  -1.73356
H     5.37229   1.66828   1.39216
H     5.78686   0.00285   0.91701
H     6.20067   1.36583  -0.15978
H     4.16149   0.99974  -1.16667
H     1.08697  -0.11617   1.44124
H    -3.21707   0.04854   0.63526
H    -4.56989  -0.90249   2.47441
H    -3.48080  -2.25757   4.26613
H    -1.01880  -2.66407   4.18311
H     0.33272  -1.75739   2.33644
H    -0.47876   2.24852  -0.95151
H    -1.58221   2.88716  -3.08084
H    -2.89245   1.19849  -4.36633
H    -3.11219  -1.12850  -3.49584
H    -2.03213  -1.76054  -1.34680
