54
Generated by autodE on: 2022-06-22. E = -1132.673406 Ha. Imaginary frequency = -372.6 cm-1
C     4.83463   2.13615   0.91452
N     3.58861   2.00667   0.18474
C     2.46064   1.59267   0.79315
O     2.38265   1.45508   2.02766
C     1.29147   1.25777  -0.06091
C     1.29001   1.72847  -1.39707
N     1.41026   2.09615  -2.49981
N     0.13277   1.09770   0.67564
C    -0.90184   0.29509   0.26296
C    -1.89620  -0.09032   1.30128
C    -3.07436  -0.77062   0.93327
C    -3.98799  -1.20667   1.89435
C    -3.76131  -0.95826   3.25039
C    -2.60828  -0.26473   3.63167
C    -1.68802   0.15997   2.67374
C    -1.48789   0.71461  -1.06754
C    -1.66921   2.09937  -1.25882
C    -2.24424   2.60196  -2.42537
C    -2.66380   1.72910  -3.43296
C    -2.51578   0.35295  -3.24639
C    -1.94301  -0.14884  -2.07407
C     0.39243  -1.54122   0.09176
C     0.57936  -1.84839   1.56336
C    -0.47817  -2.59099  -0.57127
C     1.53912  -1.05692  -0.61096
C     2.91181  -1.19805   0.00517
C     1.56519  -1.12073  -2.11473
H     4.69210   2.75273   1.81320
H     5.22603   1.15402   1.23088
H     5.57740   2.61970   0.26799
H     3.62412   2.00114  -0.82962
H     0.38199   1.05808   1.66430
H    -3.28554  -0.95924  -0.11811
H    -4.88808  -1.73790   1.57608
H    -4.47861  -1.29385   4.00273
H    -2.42005  -0.05058   4.68631
H    -0.80333   0.69423   3.02264
H    -1.34452   2.79016  -0.47954
H    -2.36362   3.68129  -2.54633
H    -3.10987   2.11765  -4.35142
H    -2.84965  -0.34456  -4.01813
H    -1.85452  -1.22251  -1.95680
H     0.99327  -1.00407   2.13162
H     1.28083  -2.69308   1.68402
H    -0.36800  -2.14805   2.03129
H    -0.04660  -3.58316  -0.33992
H    -0.52023  -2.51592  -1.66187
H    -1.50329  -2.59580  -0.17099
H     2.95251  -0.94083   1.06914
H     3.22824  -2.25574  -0.08558
H     3.65795  -0.59242  -0.52743
H     2.34170  -0.46165  -2.52786
H     0.60705  -0.84802  -2.57442
H     1.81413  -2.14971  -2.43593
