59
Generated by autodE on: 2022-10-22. E = -1417.647404 Ha
C     4.01451  -0.81980  -0.97798
O     2.72808  -0.23502  -1.16317
C     1.74329  -0.42639  -0.20209
O     1.85465  -1.64516   0.45394
C     2.67118  -1.77610   1.61977
N     1.61071   0.68339   0.74784
C     2.41745   1.79808   0.81956
C     1.78767   3.05375   1.36604
O     3.60170   1.75703   0.49473
N     0.29139   0.74271   1.21910
C     0.14675   0.34767   2.61453
C    -0.65131   0.19496   0.19256
C    -1.54269  -0.91121   0.81496
C    -2.86586  -0.63243   1.19178
C    -3.66195  -1.59733   1.81792
C    -3.15344  -2.86925   2.08329
C    -1.83487  -3.15978   1.72128
C    -1.04269  -2.19263   1.10162
C    -1.57187   1.32324  -0.31626
C    -1.70993   2.51224   0.40657
C    -2.58672   3.51435  -0.02353
C    -3.33961   3.34151  -1.18729
C    -3.21658   2.14931  -1.90853
C    -2.34760   1.14759  -1.47137
C     0.34808  -0.33493  -0.93765
C     0.58910   0.78860  -2.02284
C     0.54779   0.41780  -3.47392
O     0.81330   1.92446  -1.66352
C    -0.09936  -1.61941  -1.66113
C     0.90861  -2.65922  -2.06854
O    -1.27454  -1.76327  -1.94987
H     4.50042  -0.44642  -0.06739
H     3.94906  -1.91762  -0.95773
H     4.60569  -0.51268  -1.85057
H     2.92864  -0.79670   2.04375
H     3.59256  -2.32268   1.37248
H     2.09715  -2.34916   2.36201
H     0.92953   3.34470   0.74634
H     1.42508   2.91772   2.39472
H     2.54912   3.84341   1.35252
H     0.33650  -0.71971   2.81521
H    -0.87297   0.58360   2.94507
H     0.84063   0.94783   3.21947
H    -3.29387   0.35089   1.00639
H    -4.68791  -1.34536   2.09681
H    -3.77523  -3.62563   2.56804
H    -1.41359  -4.14759   1.92305
H    -0.01455  -2.43869   0.84893
H    -1.12406   2.65250   1.31315
H    -2.67740   4.43598   0.55673
H    -4.01937   4.12611  -1.52802
H    -3.80394   1.99421  -2.81696
H    -2.27712   0.21098  -2.02392
H     0.83052   1.28910  -4.07773
H     1.22559  -0.42211  -3.68352
H    -0.46911   0.09486  -3.74414
H     0.50425  -3.22321  -2.91924
H     1.05136  -3.34868  -1.22261
H     1.88763  -2.23061  -2.31055
