35
Generated by autodE on: 2022-10-26. E = -804.414828 Ha
C     2.31342   3.42987   0.67343
C     1.59425   2.11693   0.88649
O     0.48043   2.10351   1.45561
N     2.26856   1.05442   0.40257
N     1.60362  -0.14384   0.53650
C     2.40538  -1.14714   1.24559
C     0.39842  -0.37450   0.06584
C    -0.35237  -1.58497   0.45836
C    -0.52790  -1.90893   1.81562
C    -1.28773  -3.02148   2.17701
C    -1.87120  -3.82349   1.19069
C    -1.70733  -3.50096  -0.16097
C    -0.96471  -2.37884  -0.52761
C    -0.24767   0.55141  -0.88709
C    -1.61138   0.85255  -0.73673
C    -2.25214   1.69202  -1.64932
C    -1.54249   2.22209  -2.73044
C    -0.18689   1.91163  -2.89465
C     0.46244   1.08970  -1.97514
H     3.35043   3.29006   0.34172
H     2.28979   4.02182   1.60113
H     1.76724   4.00298  -0.09502
H     2.02672  -2.15764   1.06563
H     3.43066  -1.05350   0.86653
H     2.40511  -0.92459   2.32172
H    -0.08828  -1.27109   2.58397
H    -1.42915  -3.26009   3.23337
H    -2.46208  -4.69692   1.47591
H    -2.16563  -4.12336  -0.93260
H    -0.84492  -2.11842  -1.58077
H    -2.16481   0.43540   0.10606
H    -3.30992   1.92960  -1.51675
H    -2.04475   2.87409  -3.44885
H     0.36744   2.31284  -3.74604
H     1.52028   0.85927  -2.09974
