59
Generated by autodE on: 2022-10-22. E = -1417.639312 Ha. Imaginary frequency = -294.3 cm-1
C     3.41605   0.65410  -0.98861
O     2.78139   0.40359   0.26524
C     1.63317  -0.29251   0.37451
O     1.74985  -1.33446   1.22627
C     2.82046  -1.32862   2.16939
N     0.63175   0.85381   1.49210
C     0.93129   2.03716   2.08699
C     2.11197   2.80695   1.55272
O     0.23866   2.50172   3.00948
N    -0.39906   0.12971   2.06360
C    -0.13628  -0.46838   3.38630
C    -1.52012  -0.08598   1.39699
C    -2.36080  -1.23999   1.76579
C    -3.74365  -1.07546   1.96344
C    -4.53915  -2.17818   2.27165
C    -3.96948  -3.45359   2.35102
C    -2.59820  -3.62537   2.13175
C    -1.79245  -2.52388   1.85069
C    -2.01259   0.81637   0.35037
C    -1.85648   2.21169   0.45868
C    -2.41473   3.05149  -0.50174
C    -3.13387   2.51649  -1.57597
C    -3.30876   1.13294  -1.67941
C    -2.76206   0.28647  -0.71798
C     0.77774  -0.57262  -0.77920
C     0.44610   0.53386  -1.65120
C    -0.14733   0.28360  -3.02764
O     0.70359   1.71822  -1.35535
C     0.32878  -1.92277  -1.08015
C     1.10618  -3.15330  -0.63179
O    -0.67836  -2.13610  -1.78263
H     3.18919  -0.14375  -1.70942
H     3.09950   1.62123  -1.39929
H     4.49483   0.66878  -0.78347
H     2.78482  -0.43025   2.80376
H     2.67686  -2.22301   2.78753
H     3.79367  -1.37913   1.66156
H     3.05509   2.32839   1.85105
H     2.06938   3.81914   1.97510
H     2.08740   2.84923   0.45739
H    -1.08418  -0.60207   3.91835
H     0.37673  -1.43005   3.29446
H     0.49241   0.23553   3.94016
H    -4.18601  -0.08093   1.88945
H    -5.60914  -2.04358   2.44299
H    -4.59740  -4.31777   2.57950
H    -2.15481  -4.62223   2.17714
H    -0.72649  -2.65587   1.66923
H    -1.33913   2.63684   1.31690
H    -2.29588   4.13281  -0.40569
H    -3.56615   3.17975  -2.32865
H    -3.86939   0.71093  -2.51586
H    -2.87824  -0.79260  -0.81134
H     0.34012  -0.55839  -3.53953
H    -0.01775   1.20493  -3.61304
H    -1.21626   0.04881  -2.96965
H     0.72286  -3.53010   0.32838
H     0.92920  -3.93302  -1.38718
H     2.18244  -2.97602  -0.51770
