30
Generated by autodE on: 2022-06-24. E = -746.086478 Ha
C     2.40969  -1.16428   1.92853
O     1.28682  -0.41734   1.46436
C     1.44271   0.24714   0.28443
O     2.54586   0.33649  -0.25171
C     0.20917   0.79922  -0.20861
C     0.05066   1.71602  -1.29395
C     1.25623   2.16610  -2.08637
O    -1.08704   2.12952  -1.60802
N    -0.99121   0.50170   0.52922
C    -1.58459   1.54449   1.37470
C    -1.41941  -0.71988   0.54278
C    -2.46641  -1.21005   1.47094
C    -0.76980  -1.68455  -0.43455
C    -1.10051  -1.49534  -1.88615
O    -0.12924  -2.62090   0.00753
H     2.08183  -1.66622   2.84726
H     2.71622  -1.91479   1.18430
H     3.26333  -0.50574   2.14833
H     1.72490   1.31130  -2.59725
H     2.02603   2.60627  -1.43584
H     0.92660   2.90270  -2.83172
H    -1.24172   1.39974   2.41053
H    -1.24355   2.51755   1.01013
H    -2.67971   1.49243   1.33837
H    -2.59398  -2.29445   1.37436
H    -2.19965  -0.95850   2.51057
H    -3.42502  -0.71134   1.24852
H    -0.26722  -1.85264  -2.50713
H    -1.36111  -0.45768  -2.12831
H    -1.98216  -2.12701  -2.09682
