37
Generated by autodE on: 2022-06-17. E = -900.045574 Ha
C    -2.32577   2.92846   0.62378
O    -1.65549   1.66683   0.76148
C    -1.09502   1.15755  -0.33699
O    -1.17152   1.67271  -1.43052
C    -0.35729  -0.15451  -0.00556
C    -1.46911  -1.18439   0.22786
O    -2.55364  -1.10312  -0.31795
O    -1.12380  -2.18116   1.03057
C    -2.09257  -3.22640   1.21713
N     0.54037  -0.00308   1.14067
C     1.90653   0.10153   0.65051
C     2.29254   1.52126   0.23718
C     3.69965   1.74536  -0.24084
O     1.47677   2.42960   0.29165
C     1.93259  -0.88297  -0.53762
C     2.13836  -2.32529  -0.07927
C     0.56710  -0.58219  -1.20026
C     0.01101  -1.65624  -2.12595
H    -3.14770   2.84934  -0.10189
H    -1.61398   3.69875   0.29345
H    -2.71738   3.17359   1.61755
H    -3.01371  -2.81877   1.65673
H    -1.62936  -3.94674   1.90065
H    -2.32472  -3.70586   0.25544
H     0.27529   0.80243   1.70309
H     2.63056  -0.20374   1.42531
H     3.98928   2.79396  -0.08766
H     4.41253   1.06690   0.24925
H     3.73220   1.53514  -1.32386
H     2.73643  -0.62273  -1.24129
H     2.11674  -3.01891  -0.93304
H     1.36298  -2.63635   0.63434
H     3.11885  -2.43023   0.41060
H     0.69656   0.32903  -1.79945
H    -0.19620  -2.59999  -1.59983
H    -0.92386  -1.31595  -2.59453
H     0.73335  -1.87071  -2.92843
