12
Generated by autodE on: 2022-06-17. E = -157.299006 Ha
C    -1.61750  -0.43992   0.11836
C    -0.62919   0.67363  -0.05915
C     0.70967   0.58275  -0.10078
C     1.54741  -0.65482   0.02101
H    -2.24662  -0.26715   1.00942
H    -2.31076  -0.48917  -0.73997
H    -1.14156  -1.42506   0.22590
H    -1.06824   1.67365  -0.16687
H     1.27222   1.51482  -0.23921
H     2.17935  -0.79006  -0.87453
H     0.94962  -1.56773   0.15449
H     2.24223  -0.57550   0.87580
