25
Generated by autodE on: 2022-06-17. E = -742.696164 Ha
C    -3.01094  -2.50865  -0.75555
O    -2.35061  -1.26488  -0.48383
C    -1.02833  -1.31528  -0.32904
O    -0.38906  -2.36145  -0.40844
C    -0.37073  -0.03276  -0.05312
N     0.96989  -0.18568   0.09038
C     1.98238   0.60934   0.34072
C     3.30114  -0.03807   0.40571
C     4.47026   0.85339   0.69679
O     3.40489  -1.25209   0.22731
C    -0.94944   1.29724   0.08006
O    -0.28214   2.29685   0.32666
O    -2.27758   1.34911  -0.08989
C    -2.88526   2.63982   0.03740
H    -2.85474  -3.21867   0.06946
H    -4.07581  -2.26639  -0.84999
H    -2.63734  -2.94900  -1.69134
H     1.25457  -1.17780  -0.02748
H     1.82687   1.67337   0.48752
H     4.31864   1.36072   1.66408
H     5.40012   0.27123   0.71840
H     4.53545   1.64358  -0.06955
H    -2.72061   3.05043   1.04448
H    -2.47890   3.33780  -0.70922
H    -3.95663   2.48415  -0.13557
