37
Generated by autodE on: 2022-06-17. E = -899.970299 Ha. Imaginary frequency = -388.0 cm-1
C    -1.82562   3.17546   0.60502
O    -1.19620   1.93305   0.94168
C    -1.14174   1.01272  -0.03127
O    -1.72909   1.12376  -1.08879
C    -0.40696  -0.20801   0.42425
C    -1.23072  -1.37089   0.79696
O    -0.82742  -2.27058   1.52175
O    -2.44029  -1.36839   0.23180
C    -3.26350  -2.51978   0.46494
N     0.73365  -0.12830   1.17939
C     1.89644   0.42002   0.77589
C     2.03570   1.64201  -0.01291
C     3.44975   2.14856  -0.15939
O     1.08940   2.23296  -0.53814
C     2.00235  -0.73378  -1.23785
C     2.87302  -1.87620  -0.78973
C     0.64631  -0.91031  -1.53288
C     0.04383  -2.28636  -1.65894
H    -2.88408   3.01935   0.35074
H    -1.74128   3.80955   1.49544
H    -1.30997   3.64511  -0.24492
H    -4.19400  -2.33920  -0.08522
H    -3.47196  -2.63341   1.53837
H    -2.76902  -3.42661   0.08827
H     0.84867  -0.96115   1.76307
H     2.76518   0.10348   1.35431
H     3.52051   2.80434  -1.03736
H     3.70488   2.73509   0.74021
H     4.17694   1.32697  -0.23450
H     2.50778   0.09518  -1.73745
H     2.42257  -2.42109   0.05552
H     3.01409  -2.61120  -1.60416
H     3.86940  -1.52818  -0.48053
H     0.15840  -0.12393  -2.11129
H     0.27776  -2.93001  -0.79878
H     0.44812  -2.79214  -2.55482
H    -1.04775  -2.24073  -1.77042
