9
Generated by autodE on: 2022-05-26. E = -230.086601 Ha
C     2.12142  -0.48427   0.20944
C     0.95355  -0.17963   0.08212
C    -0.45202   0.18059  -0.07044
C    -1.44749  -0.89154   0.26092
O    -0.76384   1.30012  -0.44777
H     3.16071  -0.75057   0.32062
H    -1.26429  -1.77558  -0.37170
H    -2.46826  -0.51720   0.10761
H    -1.31039  -1.21118   1.30715
