18
Generated by autodE on: 2022-05-26. E = -605.787483 Ha
C     3.30475   0.06500   0.75832
C     2.21476  -0.74570   0.12817
O     2.37398  -1.85333  -0.36364
C     0.87157  -0.13047   0.12193
O     0.65373   1.07443   0.65506
C    -0.72406   1.41245   0.52166
O    -1.15334   2.46531   0.93649
C    -1.27606   0.27933  -0.14470
C    -2.60959   0.09004  -0.52892
N    -3.72648  -0.04446  -0.83995
N    -0.25310  -0.63244  -0.36337
C    -0.41924  -1.93153  -1.02211
H     3.40858   1.02855   0.23354
H     3.04805   0.29350   1.80535
H     4.24661  -0.49497   0.71214
H    -0.14822  -2.73111  -0.32320
H     0.23090  -1.97862  -1.90286
H    -1.46812  -2.03008  -1.32055
