27
Generated by autodE on: 2022-05-26. E = -835.854693 Ha. Imaginary frequency = -406.5 cm-1
C     2.61240   1.03097   1.89500
C     2.41066   0.70742   0.43406
O     2.91740   1.39167  -0.46328
C     1.55254  -0.39646   0.14622
C     1.05533  -1.53448  -0.07418
C    -0.87532  -1.43778  -0.24677
C    -1.44873  -2.71442   0.03375
N    -1.86575  -3.77451   0.25769
C    -0.83525  -0.90345  -1.62631
O    -0.87380  -1.41870  -2.70596
O    -0.65141   0.46349  -1.43618
C    -0.66942   0.72101  -0.10173
C    -0.48315   2.11702   0.37205
C    -0.03121   3.09782  -0.66196
O    -0.64642   2.38303   1.55251
N    -1.15592  -0.33078   0.56773
C    -1.23841  -0.44222   2.02134
H     3.55670   1.57997   2.01825
H     2.60281   0.12825   2.52220
H     1.78521   1.68205   2.22597
H     1.28610  -2.58245  -0.24924
H     0.02137   4.09769  -0.21459
H     0.96533   2.79660  -1.02783
H    -0.71244   3.09316  -1.52678
H    -0.22246  -0.47418   2.44383
H    -1.78059   0.41767   2.42168
H    -1.77084  -1.36943   2.26242
