12
Generated by autodE on: 2022-06-16. E = -356.942381 Ha
C    -2.84276  -0.06361  -0.29431
N    -1.61257   0.57194   0.13008
C    -0.41255  -0.02527  -0.04927
O    -0.29306  -1.13971  -0.58086
C     0.73642   0.74939   0.43567
N     1.92221   0.23078   0.28928
N     2.94028  -0.24947   0.14649
H    -3.68527   0.59068  -0.03899
H    -2.85295  -0.24130  -1.38209
H    -2.98813  -1.03478   0.20584
H    -1.65091   1.48772   0.56448
H     0.68228   1.72974   0.91018
