12
Generated by autodE on: 2022-06-16. E = -381.636090 Ha
O     0.04921  -2.66610   0.01867
C     0.02663  -1.43974   0.00933
C     1.28108  -0.64870   0.01420
C     1.25623   0.69558   0.00475
C    -0.02663   1.43973  -0.01010
O    -0.04921   2.66610  -0.01829
C    -1.28108   0.64870  -0.01413
C    -1.25623  -0.69558  -0.00467
H     2.21335  -1.21818   0.02540
H     2.16683   1.29922   0.00779
H    -2.21335   1.21818  -0.02485
H    -2.16683  -1.29921  -0.00724
