49
Generated by autodE on: 2022-06-21. E = -1020.948598 Ha
C    -2.14323   2.10744  -2.03489
C    -2.42426   1.60843  -0.82323
C    -3.81595   1.23065  -0.40188
C    -1.35836   1.33913   0.22575
C    -0.03323   1.99704  -0.06641
C     0.16505   3.47716   0.09856
C     1.48643   4.06373  -0.29645
O    -0.75553   4.14485   0.54481
N     0.90656   1.22805  -0.46695
C     0.39090  -0.14483  -0.55644
C     0.10842  -0.46886  -2.05195
C     1.04199   0.12013  -3.06767
O    -0.81052  -1.20436  -2.35776
C     1.41915  -1.18147  -0.11467
C     2.69115  -0.80906   0.33533
C     3.60039  -1.78035   0.76869
C     3.25014  -3.13247   0.75060
C     1.98254  -3.51053   0.29304
C     1.07485  -2.54247  -0.13784
C    -0.93584  -0.16088   0.28877
C    -0.72488  -0.60630   1.70370
C    -1.21310  -1.71377   2.29013
C    -0.89234  -2.03130   3.72631
C    -2.06723  -2.73974   1.59713
H    -2.93225   2.25833  -2.77728
H    -1.12693   2.37830  -2.33401
H    -4.54268   1.37212  -1.21471
H    -3.85388   0.17723  -0.07587
H    -4.13311   1.83661   0.46433
H    -1.74466   1.67642   1.19957
H     2.30134   3.57344   0.25787
H     1.67121   3.87604  -1.36612
H     1.48832   5.14301  -0.09814
H     2.08691   0.03466  -2.73622
H     0.82163   1.19465  -3.17134
H     0.89851  -0.37452  -4.03707
H     2.96681   0.24496   0.35278
H     4.58786  -1.47430   1.12269
H     3.96056  -3.88987   1.09012
H     1.69777  -4.56515   0.27351
H     0.08759  -2.84543  -0.48935
H    -1.66430  -0.80018  -0.21755
H    -0.09031   0.05471   2.30714
H    -0.36288  -2.99807   3.80004
H    -1.81503  -2.13813   4.32360
H    -0.26385  -1.25718   4.19103
H    -1.53457  -3.70601   1.55048
H    -2.34757  -2.45872   0.57383
H    -2.99236  -2.92343   2.17031
