23
Generated by autodE on: 2022-06-21. E = -351.521382 Ha
C     0.52245   2.41022  -2.86667
C     0.78416   1.36374  -2.05285
C     1.99777   0.49411  -2.26026
C    -0.11889   1.05650  -0.94542
C     0.03105   0.03773  -0.06193
C    -0.89704  -0.22324   1.01945
C    -0.82126  -1.21754   1.93991
C     0.27315  -2.24552   1.99181
C    -1.86962  -1.35794   3.00718
H    -0.35952   3.03976  -2.71324
H     1.18065   2.66222  -3.70281
H     2.65020   0.50368  -1.37128
H     2.58697   0.83180  -3.12452
H     1.70960  -0.55714  -2.42692
H    -0.98642   1.71859  -0.83726
H     0.89346  -0.62666  -0.16363
H    -1.74825   0.46492   1.08881
H     0.78487  -2.20929   2.96982
H    -0.15264  -3.26105   1.90754
H     1.02976  -2.12612   1.20572
H    -1.41585  -1.29388   4.01260
H    -2.35238  -2.35036   2.95367
H    -2.64977  -0.58665   2.92779
