49
Generated by autodE on: 2022-06-21. E = -1020.875204 Ha. Imaginary frequency = -381.8 cm-1
C    -2.54549   3.61497  -0.21653
C    -2.39163   2.28457  -0.35875
C    -3.23812   1.49295  -1.31955
C    -1.38803   1.56286   0.46191
C     0.35409   1.85181  -0.68358
C     0.62540   3.27089  -1.00046
C     1.41522   4.03380   0.01315
O     0.12318   3.74648  -2.00674
N     0.84927   0.80356  -1.04725
C     0.62086  -0.52723  -0.98697
C    -0.24207  -1.07126  -2.04433
C    -0.54359  -0.19410  -3.24016
O    -0.69032  -2.22391  -2.00597
C     1.43239  -1.31526  -0.06123
C     2.29130  -0.65595   0.84885
C     3.03674  -1.37005   1.78302
C     2.95411  -2.76679   1.83774
C     2.11300  -3.43271   0.94242
C     1.35741  -2.72284   0.00847
C    -1.43856   0.17201   0.66796
C    -0.84995  -0.42948   1.82893
C    -0.94929  -1.72835   2.22712
C    -0.29667  -2.18852   3.49569
C    -1.73168  -2.77306   1.48308
H    -3.28499   4.16786  -0.80220
H    -1.93431   4.18599   0.48893
H    -3.88033   2.15466  -1.91759
H    -2.61890   0.89737  -2.00551
H    -3.88475   0.78012  -0.78104
H    -0.97764   2.15141   1.29038
H     0.83373   4.08103   0.94982
H     2.35481   3.50533   0.24092
H     1.61580   5.04947  -0.35249
H     0.30285  -0.28064  -3.94418
H    -0.65160   0.87046  -3.00074
H    -1.44758  -0.56623  -3.73966
H     2.37437   0.43173   0.82184
H     3.68959  -0.83183   2.47445
H     3.53844  -3.32700   2.57110
H     2.03334  -4.52207   0.97463
H     0.69466  -3.25323  -0.66930
H    -2.07186  -0.43601   0.02188
H    -0.25948   0.24301   2.46163
H     0.44914  -2.97561   3.28503
H    -1.03809  -2.64148   4.17885
H     0.21035  -1.36754   4.02318
H    -1.17540  -3.72330   1.45456
H    -1.96606  -2.48592   0.45079
H    -2.68175  -2.98415   2.00851
