30
Generated by autodE on: 2022-06-16. E = -725.930558 Ha
C     3.59635   0.74989  -0.64440
C     2.59843  -0.27290  -0.13013
C     1.25991  -0.41708  -0.92356
C     1.08775   0.50331  -2.12695
C     0.23573  -0.08767   0.22737
C    -1.16660   0.25565  -0.16839
C    -1.72953   1.49714   0.15266
C    -3.03420   1.80448  -0.24673
C    -3.78763   0.87286  -0.96530
C    -3.23008  -0.37006  -1.28576
C    -1.92650  -0.67673  -0.89225
N     0.95212   0.89102   1.07088
N     2.16021   0.13057   1.25982
O     1.57183  -1.09917   1.81041
C     0.37094  -1.27190   1.18298
O    -0.33917  -2.21770   1.39572
H     4.47782   0.77748   0.01278
H     3.16691   1.76166  -0.69229
H     3.92986   0.47578  -1.65520
H     3.09906  -1.24236  -0.02102
H     1.13064  -1.45889  -1.24816
H     1.89888   0.34768  -2.85279
H     1.09020   1.56455  -1.83590
H     0.13658   0.29388  -2.63619
H    -1.15108   2.22756   0.72027
H    -3.46160   2.77732   0.00732
H    -4.80683   1.11365  -1.27655
H    -3.81271  -1.10346  -1.84816
H    -1.49291  -1.64517  -1.14885
H     1.20350   1.73712   0.55138
