18
Generated by autodE on: 2022-06-16. E = -568.614400 Ha
O     1.13560   0.84726   2.23741
C     1.46803   0.40105   1.15414
O     2.82929   0.22062   0.83493
N     2.99056  -0.28347  -0.41141
N     1.77878  -0.41610  -0.85914
C     0.78641  -0.04387  -0.02394
C    -0.63969  -0.10003  -0.30610
C    -1.55378   0.36371   0.66217
C    -2.92557   0.32411   0.41265
C    -3.41155  -0.17600  -0.79911
C    -2.51058  -0.63981  -1.76428
C    -1.13783  -0.60471  -1.52466
H     1.67261  -0.79227  -1.80625
H    -1.17936   0.75459   1.60787
H    -3.61994   0.68882   1.17309
H    -4.48627  -0.20507  -0.99186
H    -2.87944  -1.03369  -2.71400
H    -0.45833  -0.97517  -2.29538
