30
Generated by autodE on: 2022-06-16. E = -725.884189 Ha. Imaginary frequency = -480.9 cm-1
C     3.44968   1.08109  -0.58987
C     2.71199  -0.21288  -0.37352
C     1.53883  -0.51342  -1.11298
C     0.95279   0.45214  -2.10191
C     0.02296  -0.12361   0.60581
C    -1.26202   0.29947   0.06507
C    -1.61479   1.66172   0.01238
C    -2.82476   2.05626  -0.55896
C    -3.69796   1.10307  -1.09255
C    -3.35313  -0.25205  -1.04711
C    -2.14758  -0.65503  -0.47364
N     0.91035   0.69841   1.25180
N     2.07354   0.03094   1.45520
O     1.62458  -1.28586   1.67052
C     0.39075  -1.45434   1.05736
O    -0.13791  -2.54699   0.99510
H     4.25685   1.20561   0.14654
H     2.77691   1.95032  -0.51516
H     3.89734   1.10993  -1.59788
H     3.33950  -1.06733  -0.10836
H     1.31552  -1.56988  -1.28347
H     1.61903   0.56031  -2.97803
H     0.82576   1.46047  -1.67619
H    -0.02573   0.11228  -2.46923
H    -0.94862   2.42274   0.42351
H    -3.08541   3.11660  -0.58853
H    -4.64332   1.41511  -1.54215
H    -4.02914  -1.00310  -1.46228
H    -1.88146  -1.71098  -0.44054
H     1.02840   1.68264   1.01026
