41
Generated by autodE on: 2022-06-01. E = -1119.826356 Ha
C    -1.99862  -2.62352  -1.98731
N    -1.74293  -1.27262  -1.52483
C    -1.36572  -1.02784  -0.26976
O    -1.28539  -1.88020   0.61340
C    -1.09267   0.46741   0.07909
C    -2.24107   0.84122   1.04063
O    -2.04516   0.87130   2.25340
N    -3.43396   1.03480   0.46724
C    -4.61490   1.33232   1.26006
N    -0.99059   1.26360  -1.13670
C    -1.09222   2.72015  -1.03413
O     0.29473   0.89739  -1.63018
C     1.23994   0.86072  -0.54980
C     2.27381  -0.20163  -0.79937
C     1.95901  -1.38380  -1.48374
C     2.92908  -2.37565  -1.64515
C     4.21285  -2.19744  -1.11994
C     4.52863  -1.01846  -0.43707
C     3.56319  -0.02183  -0.28105
C     0.33380   0.62361   0.74995
C     0.42281   1.80874   1.62036
N     0.60021   2.74819   2.27593
C     0.80487  -0.49486   1.57645
N     1.29413  -1.27873   2.27612
H    -2.77835  -3.10361  -1.37716
H    -1.08695  -3.23974  -1.92690
H    -2.33437  -2.58288  -3.03021
H    -1.73139  -0.49316  -2.17673
H    -3.51609   0.98344  -0.54385
H    -4.83852   0.50809   1.95478
H    -5.46566   1.47117   0.58301
H    -4.47031   2.25063   1.84934
H    -0.93961   3.13165  -2.04011
H    -2.10543   2.98043  -0.70598
H    -0.36318   3.17833  -0.34722
H     1.72885   1.83808  -0.43588
H     0.95881  -1.52361  -1.89435
H     2.67945  -3.29309  -2.18301
H     4.96883  -2.97606  -1.24581
H     5.53133  -0.87204  -0.02919
H     3.80660   0.90203   0.24940
