19
Generated by autodE on: 2022-06-01. E = -440.328828 Ha
C     3.73811  -0.03969   0.28629
N     2.97239   1.16309   0.38871
O     1.65347   0.90831   0.25390
C     1.06440  -0.22968   0.05773
C    -0.37104  -0.25246  -0.05961
C    -1.16240   0.91555   0.03594
C    -2.54627   0.83484  -0.08770
C    -3.17023  -0.40128  -0.30805
C    -2.39545  -1.56298  -0.40351
C    -1.00899  -1.49330  -0.28079
H     3.61715  -0.55688  -0.69178
H     4.79372   0.23711   0.40397
H     3.48300  -0.79213   1.06537
H     1.65082  -1.14512  -0.01617
H    -0.68003   1.87943   0.20699
H    -3.14869   1.74325  -0.01264
H    -4.25684  -0.45683  -0.40477
H    -2.87603  -2.52896  -0.57503
H    -0.40297  -2.39952  -0.35528
