41
Generated by autodE on: 2022-06-01. E = -1119.771230 Ha. Imaginary frequency = -100.3 cm-1
C    -2.95867  -2.47952  -1.71298
N    -2.34545  -1.31238  -1.11058
C    -1.97863  -1.29624   0.17429
O    -2.13663  -2.23756   0.95787
C    -1.37716  -0.00091   0.70535
C    -2.31525   1.09804   1.12743
O    -1.94986   1.97808   1.91231
N    -3.55533   1.05531   0.60949
C    -4.51229   2.11217   0.87251
N    -0.96059   1.05039  -1.35453
C    -0.87912   2.45907  -1.05737
O     0.27638   0.46576  -1.46495
C     1.37026   0.93152  -0.96214
C     2.57410   0.16607  -1.06811
C     2.61503  -1.09463  -1.70624
C     3.80853  -1.80535  -1.74783
C     4.96273  -1.28103  -1.14880
C     4.92634  -0.03785  -0.50494
C     3.74014   0.68809  -0.46526
C    -0.11862  -0.08402   1.29269
C     0.49626   0.92129   2.10384
N     1.12905   1.64760   2.75949
C     0.67199  -1.26212   1.13490
N     1.33464  -2.21225   1.01477
H    -3.84879  -2.78893  -1.14470
H    -2.25894  -3.33074  -1.74044
H    -3.25769  -2.23303  -2.73904
H    -2.07453  -0.48970  -1.65891
H    -3.76647   0.37929  -0.11754
H    -5.48947   1.81321   0.47478
H    -4.20654   3.05932   0.39697
H    -4.60296   2.28770   1.95405
H    -0.24550   2.97694  -1.80376
H    -1.90250   2.84805  -1.13339
H    -0.49252   2.70703  -0.05289
H     1.38032   1.92420  -0.50943
H     1.71015  -1.49747  -2.16267
H     3.84518  -2.77715  -2.24419
H     5.89610  -1.84744  -1.18303
H     5.82709   0.36324  -0.03621
H     3.69543   1.65742   0.03578
