37
Generated by autodE on: 2022-06-19. E = -967.412269 Ha
C    -4.50017   0.68071   0.50383
N    -3.06491   0.78646   0.32568
C    -2.31638  -0.29857   0.08003
O    -2.77015  -1.45257   0.06300
N    -0.96231  -0.05795  -0.18030
N    -0.52825   1.20997  -0.30910
C     0.76294   1.23321  -0.35060
C     1.47515   2.48345  -0.68681
C     0.67874   3.75906  -0.73046
O     2.67302   2.45010  -0.94571
C     1.39785  -0.12371  -0.09046
N     2.09811  -0.19878   1.20097
C     3.32621   0.56541   1.34208
C     1.30892  -0.35162   2.34028
C     0.26751  -1.20271   2.32882
C     0.06238  -1.98848   1.06894
C     0.14992  -1.05383  -0.16099
C     0.19546  -1.91084  -1.45398
N    -0.97465  -2.42092  -1.85152
O     1.26789  -2.13244  -2.02028
H    -4.98027   0.21415  -0.37078
H    -4.75140   0.08071   1.39231
H    -4.90944   1.68948   0.63480
H    -2.61536   1.69597   0.31164
H    -0.12222   3.68419  -1.48167
H     0.19350   3.93775   0.24182
H     1.34414   4.59570  -0.97842
H     2.10620  -0.39471  -0.88139
H     3.91022   0.15852   2.18066
H     3.15773   1.64106   1.53177
H     3.92810   0.47211   0.42887
H     1.59827   0.22999   3.22160
H    -0.39495  -1.31585   3.18712
H     0.87402  -2.72751   0.93940
H    -0.88807  -2.53090   1.05449
H    -1.82152  -2.26291  -1.29754
H    -0.98734  -3.04091  -2.65582
