20
Generated by autodE on: 2022-06-19. E = -457.715331 Ha
C     3.10606   0.66220   0.06590
N     1.81772   0.05034  -0.21612
C     1.77126  -1.21295  -0.81919
C     0.62288  -1.87813  -1.02070
C    -0.72599  -1.33583  -0.61720
C    -0.57355   0.01614   0.06067
C    -1.74081   0.75211   0.57298
N    -2.94607   0.15121   0.40719
O    -1.66135   1.86551   1.13113
C     0.64803   0.60062   0.21517
H     2.95219   1.69455   0.40445
H     3.65296   0.11238   0.85084
H     3.72977   0.68155  -0.84086
H     2.74088  -1.61533  -1.11795
H     0.66725  -2.85650  -1.50461
H    -1.38739  -1.26119  -1.50496
H    -1.24126  -2.05737   0.04925
H    -3.77386   0.62205   0.75572
H    -3.05221  -0.75574  -0.02894
H     0.72905   1.57181   0.70597
