37
Generated by autodE on: 2022-06-19. E = -967.327477 Ha. Imaginary frequency = -349.8 cm-1
C    -4.42034  -1.11989   0.45669
N    -3.17768  -0.86298  -0.24014
C    -2.48911   0.28467  -0.05620
O    -2.90587   1.26050   0.56823
N    -1.22280   0.19580  -0.66841
N    -0.45568   1.19569  -0.62283
C     0.75364   1.36772  -0.50533
C     1.73004   2.37036  -0.94816
C     1.34397   3.80635  -0.73891
O     2.79300   2.00447  -1.42744
C     1.60054  -0.46520   0.27657
N     1.94551  -0.11884   1.58548
C     2.93633   0.92656   1.78317
C     0.94654  -0.25612   2.55871
C    -0.08904  -1.09572   2.40433
C    -0.17970  -1.98435   1.19153
C     0.55356  -1.35663   0.02814
C     0.31234  -1.94459  -1.31248
N     0.99681  -1.45241  -2.37078
O    -0.48967  -2.88445  -1.44811
H    -4.26466  -1.25631   1.54072
H    -4.87594  -2.03117   0.04998
H    -5.11922  -0.28264   0.31604
H    -2.68449  -1.63162  -0.68820
H     0.40131   4.01877  -1.26796
H     1.16604   3.98695   0.33326
H     2.14624   4.45970  -1.10596
H     2.40704  -0.33373  -0.44878
H     3.38036   0.83034   2.78355
H     2.49870   1.93864   1.69673
H     3.73531   0.82812   1.03720
H     1.07513   0.36658   3.44658
H    -0.84949  -1.16594   3.18393
H     0.26638  -2.98052   1.40099
H    -1.22383  -2.19333   0.92482
H     0.78607  -1.83010  -3.28843
H     1.58105  -0.62693  -2.32178
