12
Generated by autodE on: 2022-06-16. E = -157.299004 Ha
C     1.52719  -0.70022  -0.02782
C     0.72820   0.56844  -0.00316
C    -0.60821   0.69513   0.01587
C    -1.63172  -0.40076   0.01671
H     2.17718  -0.73675  -0.91998
H     0.90056  -1.60352  -0.02826
H     2.20227  -0.75503   0.84451
H     1.32065   1.49227  -0.00048
H    -1.01612   1.71384   0.03306
H    -2.27683  -0.33396   0.91066
H    -2.30536  -0.30848  -0.85356
H    -1.18650  -1.40576  -0.00500
