18
Generated by autodE on: 2022-06-16. E = -477.257035 Ha
C     2.75643  -0.59810  -1.72704
O     1.62223  -0.66025  -1.13512
C     0.95824   0.25915  -0.41330
C     1.55733   1.51652  -0.24523
N     2.08505   2.55525  -0.12463
C    -0.32969  -0.12609   0.13094
C    -1.08420   0.79608   0.88992
C    -2.32396   0.43691   1.41630
C    -2.84438  -0.84472   1.20289
C    -2.10296  -1.76514   0.45231
C    -0.86201  -1.41752  -0.07945
H     3.05633  -1.50716  -2.24805
H     3.35270   0.31857  -1.68983
H    -0.69187   1.80076   1.06473
H    -2.88948   1.16779   1.99957
H    -3.81608  -1.12328   1.61640
H    -2.49620  -2.76983   0.27780
H    -0.29666  -2.14646  -0.66209
