30
Generated by autodE on: 2022-06-16. E = -634.567501 Ha. Imaginary frequency = -121.8 cm-1
C     3.53137  -1.24867   0.03559
C     3.06721   0.12905  -0.35695
C     1.93011   0.67747   1.83548
O     0.77485   0.20045   1.52127
C    -0.11888   0.75536   0.67510
C     0.01842   2.11312   0.34708
N     0.13298   3.25022   0.08653
C    -1.22789  -0.07496   0.25560
C    -1.31456  -1.43064   0.64325
C    -2.37224  -2.22613   0.20396
C    -3.36283  -1.70149  -0.63443
C    -3.28143  -0.36052  -1.02847
C    -2.23167   0.44561  -0.59117
C     2.04394   0.36750  -1.21889
C     1.21982  -0.69932  -1.87509
H     4.10502  -1.71946  -0.78376
H     4.18529  -1.22037   0.91924
H     2.68566  -1.91892   0.25719
H     3.70830   0.97050  -0.07714
H     2.15763   1.72929   1.65311
H     2.51036   0.05721   2.51771
H    -0.54612  -1.85588   1.29012
H    -2.42054  -3.27185   0.51813
H    -4.18708  -2.33022  -0.97817
H    -4.04525   0.06453  -1.68440
H    -2.18089   1.48960  -0.90910
H     1.86607   1.40033  -1.53320
H     1.76619  -1.14722  -2.72661
H     0.27236  -0.30107  -2.26498
H     0.98282  -1.52432  -1.18431
