34
Generated by autodE on: 2022-06-15. E = -824.273991 Ha
C     5.02717   0.16352   0.02634
N     3.59289  -0.02034   0.00787
C     3.02915  -1.22294   0.33096
O     3.73335  -2.23578   0.54837
C     1.59475  -1.29575   0.40235
O     0.90746  -0.20256   0.09085
C    -0.36434   0.07402  -0.00097
C    -0.65197   1.40371  -0.51791
C     0.34533   2.14324  -1.19771
C     0.07885   3.42502  -1.67016
C    -1.18451   4.00182  -1.48557
C    -2.17928   3.28095  -0.81636
C    -1.92068   1.99854  -0.33454
C    -1.38371  -0.91102   0.37984
C    -2.49610  -1.13568  -0.45600
C    -3.47636  -2.06018  -0.09553
C    -3.36872  -2.76776   1.10609
C    -2.27161  -2.54767   1.94649
C    -1.28270  -1.63327   1.58642
H     5.26785   1.14655  -0.39897
H     5.44956   0.11383   1.04654
H     5.52737  -0.60891  -0.57672
H     2.99900   0.80120  -0.00102
H     1.07977  -2.21855   0.66014
H     1.32577   1.69474  -1.36379
H     0.86054   3.97774  -2.19661
H    -1.39108   5.00620  -1.86188
H    -3.16514   3.72479  -0.65943
H    -2.69996   1.46031   0.20585
H    -2.58163  -0.59030  -1.39719
H    -4.32756  -2.23121  -0.75836
H    -4.13806  -3.49032   1.38761
H    -2.18675  -3.09090   2.89033
H    -0.43782  -1.46194   2.25577
