62
Generated by autodE on: 2022-06-15. E = -1515.686099 Ha. Imaginary frequency = -198.0 cm-1
C     3.63720  -3.99674  -0.49343
N     2.39471  -3.28582  -0.27602
C     2.22964  -2.46361   0.78829
O     3.05744  -2.41941   1.71937
C     1.04475  -1.59872   0.80473
O     0.25111  -1.72347  -0.26159
C    -0.92709  -1.20818  -0.55884
C    -1.83281  -0.68132   0.45829
C    -2.67659   0.41071   0.15704
C    -3.65961   0.82039   1.05314
C    -3.81025   0.16814   2.28069
C    -2.95526  -0.88815   2.61075
C    -1.97162  -1.30772   1.71540
C    -1.32402  -1.45227  -1.94458
C    -2.66897  -1.33449  -2.36771
C    -3.03097  -1.59336  -3.68882
C    -2.07176  -1.99034  -4.62564
C    -0.74031  -2.13855  -4.21765
C    -0.37058  -1.87691  -2.90205
C     1.06947   1.45351   0.33064
C    -0.03924   2.13742   0.95968
C    -0.68009   3.21875   0.29917
C    -1.70602   3.93687   0.90837
C    -2.13694   3.60347   2.19730
C    -1.54613   2.51813   2.85064
C    -0.53343   1.78373   2.24029
C     1.66809   1.91158  -1.03315
C     1.51276   0.75258  -2.01093
C     2.39449  -0.16519  -1.59720
C     3.05146   0.44956  -0.36585
O     3.07893   1.84364  -0.73401
C     1.98442   0.48981   0.78783
C     2.46774   0.39889   2.19822
C     3.92991   0.70610   2.42182
O     1.74429   0.13558   3.15238
H     4.47142  -3.30828  -0.71561
H     3.91268  -4.58369   0.39520
H     3.51306  -4.68150  -1.34169
H     1.71870  -3.23775  -1.03001
H     0.60932  -1.33066   1.76342
H    -2.55471   0.93676  -0.78952
H    -4.30152   1.66595   0.79942
H    -4.58010   0.49197   2.98444
H    -3.06151  -1.40025   3.56978
H    -1.34763  -2.16377   1.97546
H    -3.44454  -1.06073  -1.65438
H    -4.07798  -1.49442  -3.98469
H    -2.35862  -2.19115  -5.66023
H     0.01999  -2.45816  -4.93417
H     0.66967  -1.99072  -2.60805
H    -0.36661   3.51027  -0.70270
H    -2.17210   4.76678   0.37171
H    -2.93955   4.16934   2.67572
H    -1.89548   2.22246   3.84239
H    -0.10430   0.93152   2.75624
H     1.38298   2.90685  -1.38077
H     0.77096   0.69634  -2.80547
H     2.58336  -1.16849  -1.97030
H     4.04019   0.07485  -0.09240
H     4.53186  -0.15408   2.08935
H     4.10290   0.86875   3.49362
H     4.24771   1.58506   1.84280
