23
Generated by autodE on: 2022-06-23. E = -351.521382 Ha
C     3.22744  -1.94368  -0.32465
C     2.21597  -1.13213  -0.70435
C     2.17340  -0.52556  -2.08363
C     1.13491  -0.82678   0.23064
C     0.06677  -0.03113  -0.02806
C    -0.97920   0.23897   0.93719
C    -2.07563   1.01826   0.75777
C    -3.07543   1.20419   1.86400
C    -2.39713   1.75282  -0.51280
H     3.25543  -2.38207   0.67771
H     4.04879  -2.18885  -1.00373
H     3.04196  -0.83489  -2.68197
H     1.25817  -0.82432  -2.62128
H     2.16234   0.57595  -2.03300
H     1.21282  -1.29105   1.22115
H    -0.01744   0.43571  -1.01314
H    -0.85791  -0.24489   1.91398
H    -3.17730   2.27332   2.12374
H    -2.79799   0.65027   2.77282
H    -4.07950   0.87155   1.54459
H    -1.66303   1.59465  -1.31330
H    -3.38869   1.44650  -0.89030
H    -2.46617   2.83800  -0.31925
