29
Generated by autodE on: 2022-06-23. E = -800.081203 Ha
C     5.24887   0.19892   0.02038
N     3.83967   0.45997   0.20929
C     2.85626  -0.32107  -0.31477
O     3.08995  -1.33537  -1.01190
C     1.50388   0.12423   0.01416
C     1.13587   1.19663   0.85064
O     1.74494   2.06890   1.49627
O    -0.29168   1.15209   0.88496
C    -0.72024   0.13860   0.12500
C    -2.14995  -0.10660   0.00380
C    -2.67912  -1.40626  -0.11931
C    -4.05898  -1.58864  -0.20823
C    -4.92140  -0.48873  -0.16689
C    -4.40101   0.80252  -0.02473
C    -3.02459   0.99722   0.06474
N     0.31276  -0.48568  -0.42140
C     0.23796  -1.55398  -1.41895
H     5.74816   1.04287  -0.48320
H     5.36609  -0.69630  -0.60150
H     5.75791   0.02628   0.98289
H     3.55417   1.25791   0.77311
H    -2.02094  -2.27484  -0.11148
H    -4.46259  -2.59928  -0.29832
H    -6.00108  -0.63838  -0.23721
H    -5.07193   1.66330   0.01379
H    -2.61626   2.00314   0.17136
H    -0.76459  -1.56502  -1.85641
H     0.45877  -2.52353  -0.95489
H     0.98134  -1.35247  -2.19475
