52
Generated by autodE on: 2022-06-23. E = -1151.573347 Ha. Imaginary frequency = -477.3 cm-1
C     3.63098   3.28682   0.22945
C     2.94091   2.32950  -0.42710
C     2.89602   2.28197  -1.93221
C     2.17586   1.33703   0.32542
C     1.38751   0.38026  -0.21385
C     0.55923  -0.52624   0.58609
C    -1.17661   0.40743   0.88879
C    -0.92053   1.79183   1.33688
C    -0.46841   2.79591   0.46007
C    -0.14275   4.06467   0.94401
C    -0.24493   4.35091   2.30695
C    -0.68149   3.35610   3.18802
C    -1.01326   2.08854   2.70985
O    -1.65905  -0.43143   1.90510
C    -2.16970  -1.55605   1.31496
O    -2.55980  -2.50635   1.97584
C    -2.06891  -1.33158  -0.10985
C    -2.64194  -2.23677  -1.13138
O    -2.69813  -1.95116  -2.33795
N    -3.05293  -3.43038  -0.65687
C    -3.56495  -4.45695  -1.54054
N    -1.88604   0.04527  -0.25103
C    -1.84024   0.77410  -1.50913
C     0.16118  -1.81286   0.05895
C     0.40150  -2.13385  -1.39695
C     0.27375  -3.00978   0.96586
H     3.64544   3.32298   1.32306
H     4.19295   4.05634  -0.30718
H     3.51465   3.07476  -2.37588
H     1.86255   2.40329  -2.29839
H     3.25119   1.30968  -2.31188
H     2.22654   1.42068   1.41691
H     1.31821   0.29946  -1.30051
H     0.83635  -0.54493   1.64517
H    -0.34703   2.59791  -0.60027
H     0.20875   4.82767   0.24635
H     0.01843   5.34231   2.68265
H    -0.76442   3.56667   4.25671
H    -1.34601   1.31906   3.40555
H    -3.01343  -3.58508   0.34997
H    -4.48840  -4.13166  -2.04697
H    -2.82903  -4.71506  -2.31843
H    -3.78485  -5.35467  -0.94990
H    -2.23986   1.78451  -1.35877
H    -0.81760   0.84371  -1.90901
H    -2.46346   0.24338  -2.23123
H     1.48575  -2.27020  -1.56431
H     0.05683  -1.34919  -2.08116
H    -0.08976  -3.07576  -1.67945
H     1.28928  -3.43575   0.86665
H     0.12505  -2.75453   2.02409
H    -0.43592  -3.80368   0.68781
