44
Generated by autodE on: 2022-10-07. E = -1050.349764 Ha
C     0.05401   1.64731  -3.59698
N    -0.29491   0.87722  -2.40535
C     0.43788   1.11687  -1.22163
N     0.89122   2.47456  -1.07587
N     1.74131   0.27668  -1.17351
C     1.96942  -0.09053   0.27218
C     3.28787   0.42830   0.80370
C     1.91846  -1.64594   0.35469
C     1.85621  -2.25151   1.71805
O     1.99912  -2.28842  -0.67386
O     0.90459   0.52684   0.96176
C    -0.23441   0.56842   0.09470
C    -1.22779   1.63131   0.56574
O    -2.20744   1.90030  -0.09697
O    -0.90791   2.18938   1.71774
C    -1.80497   3.20174   2.21751
C    -0.93818  -0.79232   0.12043
C    -1.38774  -1.20887   1.38736
C    -1.98125  -2.45794   1.55672
C    -2.13272  -3.31409   0.46047
C    -1.69227  -2.90589  -0.79952
C    -1.10095  -1.65057  -0.97324
H    -0.15330   2.72807  -3.51400
H    -0.52569   1.25199  -4.44282
H     1.12047   1.51880  -3.83191
H    -1.29272   0.91108  -2.20461
H     0.12330   3.11879  -1.26466
H     1.24532   2.65795  -0.13579
H     1.65831  -0.60250  -1.71584
H     2.51344   0.83158  -1.56390
H     4.12608  -0.06084   0.28783
H     3.35272   0.21584   1.87885
H     3.33975   1.51567   0.64718
H     1.38365  -1.58209   2.44598
H     2.89291  -2.44467   2.04525
H     1.32687  -3.21190   1.66481
H    -1.85400   4.04059   1.50960
H    -1.38146   3.52853   3.17320
H    -2.80746   2.77676   2.36343
H    -1.25666  -0.55355   2.25103
H    -2.32147  -2.76590   2.54777
H    -2.59240  -4.29644   0.59075
H    -1.80230  -3.56856  -1.66071
H    -0.75274  -1.34987  -1.95829
