13
Generated by autodE on: 2022-10-07. E = -245.298497 Ha
C     1.46489  -1.29044   0.32260
N     0.67689  -0.41054  -0.52381
C    -0.35568   0.31530  -0.08819
N    -0.73586   0.24786   1.18937
N    -1.00980   1.11725  -0.93363
H     1.95174  -0.73450   1.13967
H     2.24429  -1.75118  -0.29465
H     0.84729  -2.09317   0.75629
H     0.92579  -0.32803  -1.50452
H    -0.27998  -0.37977   1.84055
H    -1.52699   0.79189   1.51584
H    -1.80200   1.66489  -0.61655
H    -0.72557   1.18466  -1.90462
