31
Generated by autodE on: 2022-10-13. E = -805.024746 Ha
C    -1.01048   4.10368   1.12937
O    -0.32251   2.87288   0.87986
C    -1.05530   1.88176   0.34324
O    -2.23048   2.02131   0.03771
C    -0.28633   0.63777   0.15980
O     0.90690   0.72055   0.71775
C     2.03595   0.03551   0.73267
C     2.99439   0.48976   1.78209
C     2.36578  -0.91500  -0.30341
C     3.67457  -1.65255  -0.15908
O     1.63566  -1.07484  -1.29461
C    -0.90636  -0.57765  -0.34179
C    -0.57778  -1.83517   0.21224
C    -1.25641  -2.98582  -0.18265
C    -2.25054  -2.91731  -1.16419
C    -2.56895  -1.68145  -1.73958
C    -1.91333  -0.52239  -1.33161
H    -0.26754   4.78111   1.56651
H    -1.84201   3.94973   1.83308
H    -1.40298   4.52582   0.19258
H     2.60507   1.39531   2.26679
H     3.12976  -0.28462   2.55773
H     3.99021   0.70510   1.36387
H     3.75552  -2.39698  -0.96189
H     4.52542  -0.95512  -0.23011
H     3.74512  -2.15061   0.82082
H     0.19309  -1.90924   0.98051
H    -0.99813  -3.94519   0.27138
H    -2.76911  -3.82346  -1.48562
H    -3.33473  -1.62069  -2.51638
H    -2.17001   0.43334  -1.78494
