31
Generated by autodE on: 2022-10-07. E = -805.027650 Ha
C    -0.60357   3.09555   1.73745
O    -0.50394   1.70220   1.41670
C    -0.44569   1.38884   0.11939
O    -0.66049   2.17983  -0.77895
C    -0.26065  -0.07378  -0.07353
O     0.42688  -0.79258   0.78303
C     1.45225  -0.47418   1.58989
C     1.79814  -1.54978   2.56305
C     2.27879   0.64139   1.26522
C     3.58922   0.76131   2.00781
O     1.98925   1.44183   0.34596
C    -0.97448  -0.83197  -1.08036
C    -0.64649  -2.19446  -1.28832
C    -1.33085  -2.95248  -2.23275
C    -2.34784  -2.37405  -3.00265
C    -2.67600  -1.02667  -2.81377
C    -2.00414  -0.25945  -1.86570
H     0.24180   3.64557   1.30027
H    -1.54908   3.51311   1.36242
H    -0.57013   3.15657   2.83127
H     2.83907  -1.89405   2.44780
H     1.12737  -2.40813   2.41895
H     1.68622  -1.20298   3.60499
H     4.09925   1.68033   1.69095
H     3.41804   0.79336   3.09560
H     4.24271  -0.10349   1.80758
H     0.15871  -2.64601  -0.70812
H    -1.06278  -4.00128  -2.37912
H    -2.87831  -2.96959  -3.74894
H    -3.46969  -0.56886  -3.40841
H    -2.27850   0.78457  -1.72601
