39
Generated by autodE on: 2022-10-07. E = -1063.223313 Ha
C    -2.94629  -1.73969   0.03607
N    -2.17280  -1.46044   1.23821
C    -1.16823  -0.61176   1.44701
O    -0.58476  -0.47846   2.52245
C    -0.72143   0.32127   0.26864
C    -1.77305   1.43740   0.07916
O    -1.80491   2.37790   0.82487
O    -2.57697   1.20463  -0.92533
C    -3.63338   2.16324  -1.15505
N     0.55143   0.96374   0.69589
C     1.45658   0.98995  -0.54500
N     1.07887   2.15414  -1.28863
N     2.81140   0.96432  -0.09380
C     3.81501   0.87675  -1.16051
C     0.97697  -0.34552  -1.18745
C     1.66589  -1.57108  -0.59282
O     2.55648  -2.16746  -1.13213
O     1.16362  -1.86502   0.59434
C     1.74389  -2.95172   1.33526
O    -0.42489  -0.34422  -0.93228
H    -3.96503  -1.33306   0.12495
H    -2.46871  -1.31617  -0.84904
H    -3.01496  -2.82869  -0.09603
H    -2.42168  -1.99649   2.06887
H    -3.19793   3.14840  -1.36975
H    -4.18933   1.78698  -2.01983
H    -4.28079   2.22004  -0.26971
H     0.37813   1.92176   1.04021
H     0.94362   0.40717   1.47762
H     1.85707   2.46934  -1.86581
H     0.28580   1.98100  -1.90952
H     2.98131   1.81134   0.45210
H     4.80978   0.87163  -0.69566
H     3.70086  -0.06112  -1.71793
H     3.78310   1.71591  -1.87913
H     1.13193  -0.34192  -2.27130
H     1.21604  -2.96824   2.29497
H     2.81678  -2.76961   1.48689
H     1.59542  -3.89665   0.79473
