26
Generated by autodE on: 2022-10-07. E = -817.911935 Ha
C    -1.84123   4.07749   0.00291
N    -1.47461   2.77668   0.51775
C    -0.76356   1.87597  -0.18996
O    -0.35852   2.07252  -1.35053
C    -0.47093   0.59767   0.48342
O     0.22001  -0.33702  -0.14191
C     0.76962  -0.44263  -1.29840
C     1.43957  -1.72172  -1.53608
O     1.50097  -2.62928  -0.74910
O     1.97557  -1.74062  -2.75946
C     2.66258  -2.94143  -3.13791
C    -0.88384   0.21750   1.83200
O    -1.53078   0.94601   2.57713
O    -0.48703  -1.01037   2.18260
C    -0.85456  -1.45002   3.49697
H    -1.43425   4.88095   0.63750
H    -1.43949   4.19152  -1.01048
H    -2.93635   4.19356  -0.03621
H    -1.75064   2.50236   1.46044
H     0.71859   0.37245  -2.01634
H     1.98001  -3.80303  -3.09930
H     3.01224  -2.77960  -4.16387
H     3.51631  -3.12254  -2.46843
H    -1.94867  -1.47229   3.60586
H    -0.44359  -2.46091   3.59995
H    -0.42558  -0.78586   4.26132
