13
Generated by autodE on: 2022-10-07. E = -245.298491 Ha
C     1.50144  -0.84492  -0.97448
N     0.47247  -0.82018   0.05062
C    -0.36782   0.19936   0.24342
N    -0.30256   1.28261  -0.53378
N    -1.27815   0.13375   1.22005
H     2.04502  -1.79257  -0.88993
H     2.21996  -0.02011  -0.84414
H     1.06707  -0.78252  -1.98504
H     0.38234  -1.62106   0.66744
H    -0.93933   2.05796  -0.38571
H     0.38129   1.35435  -1.27771
H    -1.92583   0.89866   1.37322
H    -1.33841  -0.68678   1.81309
