62
Generated by autodE on: 2022-10-24. E = -4067.728006 Ha
C    -1.57283 -20.90046  -9.26075
N    -0.68034 -19.98163  -8.58034
C    -0.14353 -20.27728  -7.38801
O    -0.36806 -21.32908  -6.79064
C     0.84290 -19.24111  -6.86611
C     2.23325 -19.45056  -7.53337
O     2.70003 -20.42822  -8.05084
O     2.86174 -18.25981  -7.45364
C     1.91294 -17.36664  -6.76193
C     2.19919 -15.92530  -7.06519
C     3.07435 -15.57209  -8.09662
C     3.29279 -14.22402  -8.40023
C     2.63265 -13.22470  -7.68213
C     1.74967 -13.57815  -6.65486
C     1.53445 -14.92094  -6.34713
C     1.89971 -17.91716  -5.29863
C     1.18450 -19.06348  -5.34472
C     0.82183 -20.07475  -4.29235
Br    2.02060 -21.68249  -4.61420
C    -0.67041 -20.45588  -4.39761
C    -1.14271 -21.80143  -3.93539
O    -1.44245 -19.56258  -4.70445
C     1.06049 -19.70637  -2.80851
C     0.26265 -18.53487  -2.22429
C     0.41701 -17.16375  -2.88495
C     1.84100 -16.63882  -3.08585
C     2.72448 -17.31241  -4.16444
O     3.52019 -18.29338  -3.51677
C     4.50243 -18.93764  -4.31778
O     3.59097 -16.38937  -4.78927
C     4.40621 -15.59520  -3.94338
N     0.65128 -17.85815  -7.33691
C    -0.58020 -17.19692  -6.91474
H    -1.04316 -21.81368  -9.57709
H    -1.98508 -20.40342 -10.14694
H    -2.39996 -21.19821  -8.59908
H    -0.41730 -19.10785  -9.02568
H     3.59291 -16.34903  -8.65810
H     3.98355 -13.95759  -9.20353
H     2.80496 -12.17225  -7.91922
H     1.23059 -12.80334  -6.08615
H     0.86059 -15.18860  -5.53251
H    -0.74982 -22.02935  -2.93293
H    -2.24005 -21.80216  -3.91235
H    -0.78150 -22.58011  -4.61874
H     0.82199 -20.60387  -2.22098
H     2.12881 -19.51955  -2.68490
H     0.58739 -18.45688  -1.17263
H    -0.80996 -18.78477  -2.19245
H    -0.10625 -16.43243  -2.24788
H    -0.11655 -17.14862  -3.84544
H     1.75913 -15.58344  -3.38066
H     2.40075 -16.66855  -2.13810
H     4.07217 -19.37243  -5.23248
H     4.91740 -19.75051  -3.70732
H     5.31178 -18.24630  -4.60066
H     3.83281 -14.78466  -3.46380
H     5.17677 -15.14651  -4.58552
H     4.89679 -16.19908  -3.16344
H    -0.61889 -16.19390  -7.35696
H    -0.68448 -17.11197  -5.82197
H    -1.43380 -17.76704  -7.29971
