29
Generated by autodE on: 2022-10-24. E = -800.081837 Ha
C     5.23560  -0.24788   0.27958
N     3.84386   0.11398   0.42612
C     2.83657  -0.50553  -0.24060
O     3.02969  -1.42560  -1.05658
C     1.50700   0.00036   0.08875
C     1.17707   0.95543   1.06533
O     1.80748   1.65731   1.85015
O    -0.24720   1.02440   1.03812
C    -0.71103   0.17760   0.11405
C    -2.14686   0.07289  -0.10127
C    -2.93698   1.22325   0.09728
C    -4.31766   1.16009  -0.07574
C    -4.92703  -0.04649  -0.43784
C    -4.14981  -1.19492  -0.61738
C    -2.76650  -1.14376  -0.44809
N     0.29837  -0.43873  -0.48138
C     0.19336  -1.33255  -1.63563
H     5.31455  -1.08683  -0.42174
H     5.67201  -0.55381   1.24428
H     5.83075   0.59313  -0.11297
H     3.58776   0.84399   1.08831
H    -2.45869   2.16334   0.37567
H    -4.92193   2.05783   0.07048
H    -6.00991  -0.09329  -0.57266
H    -4.62421  -2.14282  -0.87973
H    -2.17907  -2.05574  -0.55212
H     0.29181  -2.37818  -1.31762
H     1.00300  -1.09334  -2.32982
H    -0.77463  -1.17598  -2.12119
