33
Generated by autodE on: 2022-10-24. E = -3267.605588 Ha
C    -2.32398  -0.55184  -4.13039
O    -2.08288  -0.68329  -2.73332
C    -1.43030   0.40232  -2.11190
O    -2.20833   1.57658  -2.17263
C    -3.48751   1.49730  -1.55687
C    -1.15036   0.01867  -0.71147
C    -0.51512  -0.02726   0.31940
C     0.58500   0.17423   1.23217
Br    1.53772  -1.61852   1.44665
C     0.14850   0.50104   2.67303
C     1.18609   1.03849   3.61325
O    -1.01585   0.35080   2.98761
C     1.55283   1.19545   0.60187
C     1.83569   1.02328  -0.90279
C     0.84787   1.67260  -1.91389
C    -0.06281   0.74469  -2.74394
H    -2.76627   0.42675  -4.37530
H    -1.40360  -0.69061  -4.72132
H    -3.03830  -1.34192  -4.39997
H    -3.39898   1.26372  -0.48132
H    -3.95750   2.48310  -1.67202
H    -4.12115   0.73357  -2.03515
H     2.15533   0.53508   3.49913
H     1.33896   2.10581   3.37876
H     0.82567   0.95274   4.64632
H     1.10362   2.18823   0.77996
H     2.49543   1.17177   1.16620
H     1.96497  -0.04785  -1.13045
H     2.82307   1.47858  -1.07096
H     0.22646   2.42859  -1.40665
H     1.45393   2.23447  -2.64021
H    -0.27893   1.22259  -3.71104
H     0.44914  -0.20752  -2.95194
