18
Generated by autodE on: 2022-07-27. E = -489.751723 Ha
C    -2.39575  -0.72111   2.18451
N    -1.71540  -0.20231   1.01506
C    -0.38645  -0.39390   0.84105
O     0.28441  -1.01947   1.67403
C     0.17740   0.20093  -0.39343
C    -0.63723   1.00315  -1.22268
N    -1.32160   1.66662  -1.89872
N     1.47780   0.04193  -0.80511
C     2.41890  -0.77637  -0.00639
N     1.99900   0.54221  -1.85590
H    -1.93919  -0.34143   3.11184
H    -3.44427  -0.40125   2.15092
H    -2.36350  -1.82248   2.21926
H    -2.26557   0.27019   0.30632
H     2.01262  -1.78521   0.11218
H     2.54315  -0.32130   0.98081
H     3.35834  -0.78487  -0.56488
H     1.28082   1.09277  -2.34961
