18
Generated by autodE on: 2022-06-18. E = -489.758833 Ha
C     3.25764  -0.71864  -0.17064
N     2.02339   0.02999  -0.03874
C     0.82362  -0.58207  -0.10844
O     0.73636  -1.81372  -0.29920
C    -0.36819   0.26624   0.04916
C    -0.24184   1.65033   0.27619
N    -0.07752   2.79273   0.46304
N    -1.63535  -0.27375  -0.01865
C    -2.77501   0.65676   0.14364
N    -1.94038  -1.49004  -0.20840
H     3.30951  -1.23874  -1.14019
H     4.10043  -0.02069  -0.09981
H     3.35726  -1.47494   0.62448
H     2.07204   1.03085   0.11964
H    -3.68714   0.05788   0.07962
H    -2.74413   1.40671  -0.65678
H    -2.70095   1.15138   1.11986
H    -1.04286  -2.00206  -0.30151
