41
Generated by autodE on: 2022-06-18. E = -841.257324 Ha. Imaginary frequency = -427.3 cm-1
C     2.52031   2.39541  -2.85112
C     1.37070   1.90268  -2.35695
C     0.06939   2.01082  -3.10202
C     1.37488   1.20127  -1.04449
N     1.62042  -0.57195  -1.67349
N     1.29704  -1.38388  -0.67683
C     2.32363  -1.75408   0.29831
C    -0.04264  -1.31075  -0.36825
C    -0.93000  -1.17559  -1.46745
N    -1.71509  -1.08012  -2.32752
C    -0.59526  -1.64646   0.96269
O     0.11413  -1.88815   1.94893
N    -1.94488  -1.62230   1.05982
C    -2.60169  -1.79317   2.33958
C     0.22479   1.19209  -0.20756
C     0.32303   1.25309   1.22699
C    -0.69004   1.47050   2.10906
C    -0.43055   1.48099   3.58678
C    -2.11711   1.71630   1.70917
H     3.46055   2.30885  -2.29751
H     2.55256   2.90395  -3.81911
H    -0.64830   2.64866  -2.55906
H    -0.40877   1.02443  -3.20940
H     0.21993   2.44179  -4.10208
H     2.32293   1.29903  -0.50330
H     2.63339  -0.63043  -1.82287
H     2.05192  -2.68383   0.80408
H     3.26038  -1.89127  -0.25733
H     2.45155  -0.95796   1.04724
H    -2.49967  -1.30632   0.27194
H    -2.22367  -1.07804   3.08730
H    -3.67824  -1.63148   2.20687
H    -2.44491  -2.80886   2.73646
H    -0.74031   1.41487  -0.66384
H     1.32573   1.09817   1.64186
H    -1.01263   0.68424   4.08593
H    -0.76039   2.43096   4.04553
H     0.63305   1.32993   3.82321
H    -2.31249   1.53436   0.64462
H    -2.79808   1.07865   2.29680
H    -2.40409   2.75963   1.93680
