51
Generated by autodE on: 2022-06-04. E = -1543.612688 Ha
C     1.12984  -6.40382  -2.97140
O     0.39664  -7.63760  -2.88723
C     0.96369  -8.62062  -2.19597
O     2.05086  -8.54136  -1.66070
C     0.09580  -9.84382  -2.13709
N    -1.18641  -9.73123  -2.10004
C    -1.71283 -11.09059  -1.98231
C    -2.75318 -11.34170  -3.10904
C    -3.50424 -10.16193  -3.63619
O    -2.91844 -12.46776  -3.52895
C    -2.47209 -11.05997  -0.62966
O    -3.67204 -10.93098  -0.53925
O    -1.62713 -11.07298   0.38724
C    -2.19554 -11.08992   1.70528
C    -0.50662 -12.02935  -2.01798
C     0.59505 -11.23123  -2.08693
C     2.03841 -11.56496  -2.28936
C     2.38328 -11.56971  -3.78987
C     1.44558 -12.44355  -4.62831
C     1.22584 -13.86626  -4.07609
C    -0.13332 -14.16574  -3.42051
C    -0.57576 -13.56022  -2.05238
C    -2.03857 -14.05110  -1.71039
C    -2.64619 -15.21241  -2.44384
O    -2.60177 -13.55506  -0.75341
C     0.22873 -14.19568  -0.87862
F     0.10528 -13.50067   0.25932
F    -0.21557 -15.44823  -0.62264
F     1.54427 -14.33169  -1.11799
H     1.28427  -5.98319  -1.96755
H     0.51438  -5.73006  -3.57779
H     2.10357  -6.57168  -3.45343
H    -2.80945  -9.53203  -4.21481
H    -3.88694  -9.54538  -2.81158
H    -4.32115 -10.50693  -4.28291
H    -1.34621 -11.11059   2.39718
H    -2.81373 -11.99020   1.83204
H    -2.80633 -10.19182   1.87411
H     2.27799 -12.53588  -1.85369
H     2.65793 -10.82100  -1.77372
H     2.36482 -10.53689  -4.17824
H     3.42145 -11.92721  -3.89467
H     0.47030 -11.94158  -4.74296
H     1.86580 -12.51021  -5.64447
H     1.27175 -14.57257  -4.91993
H     2.05721 -14.15543  -3.41741
H    -0.20678 -15.25760  -3.31702
H    -0.91390 -13.86902  -4.13351
H    -3.66790 -15.35605  -2.07063
H    -2.05495 -16.11830  -2.23994
H    -2.65992 -15.06117  -3.52884
