28
Generated by autodE on: 2022-06-04. E = -802.061996 Ha
C    -2.89750  -0.57074  -0.57231
C    -1.69597  -0.02868  -1.28403
O    -1.70701   0.28506  -2.45741
C    -0.38346   0.07485  -0.46070
C     0.42639   1.29450  -0.94127
F    -0.32325   2.41223  -0.90900
F     1.49604   1.52205  -0.15538
F     0.89062   1.15643  -2.18998
C    -0.59188   0.16467   0.98285
C    -0.43640  -0.10939   2.15364
C     0.05543  -0.80744   3.33412
C     1.32481  -1.58546   2.90414
C     1.21243  -2.36693   1.57664
C     1.54706  -1.61799   0.25426
C     0.39644  -1.26838  -0.71270
H    -3.25771   0.19122   0.13884
H    -3.68764  -0.80087  -1.29820
H    -2.63906  -1.46107   0.01981
H     0.27957  -0.12596   4.16988
H    -0.71892  -1.50706   3.69269
H     1.57370  -2.28542   3.71800
H     2.16681  -0.87669   2.83254
H     1.91933  -3.20791   1.65294
H     0.21319  -2.83078   1.50288
H     2.21181  -2.27320  -0.33018
H     2.14343  -0.71918   0.47252
H    -0.34937  -2.07798  -0.68707
H     0.77247  -1.22412  -1.74508
