51
Generated by autodE on: 2022-06-04. E = -1543.498217 Ha. Imaginary frequency = -277.9 cm-1
C     0.40441  -6.79532  -4.18441
O    -0.29991  -7.89145  -3.56229
C     0.15003  -8.29372  -2.38566
O     1.08147  -7.83558  -1.76454
C    -0.59844  -9.47258  -1.92102
N    -1.47672  -9.76377  -1.16266
C    -2.35445 -10.63393  -0.70948
C    -3.52881 -10.95138  -1.55025
C    -3.69615 -10.15080  -2.81776
O    -4.31188 -11.83965  -1.23104
C    -2.20903 -11.10416   0.68720
O    -3.09355 -11.59704   1.35676
O    -0.95698 -10.91865   1.12712
C    -0.66524 -11.38957   2.44894
C    -0.74392 -12.32312  -2.38137
C    -0.06621 -11.42459  -2.89280
C     0.98850 -10.99504  -3.83498
C     1.40711 -12.17380  -4.73108
C     2.18748 -13.30919  -4.05402
C     1.56907 -14.00586  -2.82793
C     0.13156 -14.53847  -3.00885
C    -0.98099 -13.76761  -2.20162
C    -2.32644 -14.25829  -2.79954
C    -2.82579 -13.57439  -4.03821
O    -2.91066 -15.19727  -2.29665
C    -0.91685 -14.15384  -0.70870
F    -2.02686 -13.78396  -0.04670
F    -0.76869 -15.47291  -0.52252
F     0.11958 -13.55663  -0.08532
H    -0.10286  -6.62358  -5.13950
H     0.34578  -5.90125  -3.54899
H     1.45489  -7.07347  -4.34727
H    -3.68690  -9.07083  -2.60363
H    -2.86465 -10.35129  -3.51136
H    -4.64384 -10.42969  -3.29453
H     0.39479 -11.16928   2.61961
H    -0.84375 -12.47238   2.51454
H    -1.28636 -10.86962   3.19270
H     1.84804 -10.59700  -3.26777
H     0.62423 -10.16594  -4.46085
H     2.03315 -11.77228  -5.54485
H     0.49968 -12.57397  -5.21331
H     2.38198 -14.07226  -4.82772
H     3.17749 -12.92573  -3.75180
H     2.21938 -14.85732  -2.57306
H     1.61688 -13.33439  -1.96038
H     0.05984 -15.59644  -2.72270
H    -0.15621 -14.48700  -4.06897
H    -3.50723 -12.77033  -3.71917
H    -3.40321 -14.29032  -4.63839
H    -2.02217 -13.11926  -4.63015
