16
Generated by autodE on: 2022-06-04. E = -268.014002 Ha
C    -1.42334   1.23323   0.39810
C    -0.67528  -0.01729   0.07614
C    -1.36266  -1.33967  -0.09387
N     0.64137   0.08468  -0.05926
C     1.42014  -1.12374  -0.37563
N     1.39124   1.17695   0.05825
H    -2.49938   1.03703   0.48858
H    -1.07222   1.68597   1.34685
H    -1.27637   2.00889  -0.37984
H    -1.23277  -1.76356  -1.10638
H    -1.00066  -2.10603   0.61497
H    -2.44096  -1.21876   0.07535
H     1.30477  -1.87029   0.42137
H     2.46789  -0.82223  -0.45789
H     1.07840  -1.56074  -1.32303
H     0.74769   1.94275   0.27758
