26
Generated by autodE on: 2022-06-16. E = -590.545491 Ha
C     3.44378  -1.35828  -0.43399
N     2.19680  -0.63565  -0.59025
C     1.40076  -0.33558   0.43919
O     1.61531  -0.64238   1.61462
C     0.09961   0.39911   0.06445
C    -0.00415   1.58642   0.92575
N    -0.10049   2.53345   1.58891
N     0.06613   0.85112  -1.34842
C    -1.10387   0.60774  -1.80560
C    -2.08459  -0.03534  -0.86730
C    -2.97886  -1.09397  -1.50307
C    -1.13713  -0.55244   0.23524
C    -1.73056  -0.64969   1.62956
H     3.34052  -2.10928   0.36052
H     4.27534  -0.68501  -0.16721
H     3.69062  -1.86423  -1.37620
H     1.94457  -0.24693  -1.49534
H    -1.35964   0.87321  -2.83925
H    -2.71710   0.77617  -0.45659
H    -3.61394  -0.65475  -2.28792
H    -3.63917  -1.54576  -0.74734
H    -2.37559  -1.89686  -1.95606
H    -0.77896  -1.54627  -0.08074
H    -2.11533   0.32419   1.97003
H    -0.97895  -0.99783   2.35259
H    -2.56663  -1.36551   1.63327
