12
Generated by autodE on: 2022-06-16. E = -157.300302 Ha
C    -1.95907  -0.03802   0.13626
C    -0.49478   0.01136   0.45137
C     0.49478  -0.01132  -0.45138
C     1.95907   0.03800  -0.13625
H    -2.48296   0.85230   0.52729
H    -2.44160  -0.91073   0.61131
H    -2.14175  -0.09406  -0.94843
H    -0.22972   0.07013   1.51639
H     0.22973  -0.07008  -1.51640
H     2.44171   0.91048  -0.61159
H     2.14174   0.09437   0.94843
H     2.48287  -0.85253  -0.52697
