26
Generated by autodE on: 2022-06-16. E = -590.441677 Ha. Imaginary frequency = -371.6 cm-1
C     2.49941  -1.81181  -1.27106
N     1.74170  -0.58910  -1.08508
C     1.46793  -0.12723   0.15743
O     2.01597  -0.58161   1.17431
C     0.47452   0.95657   0.27794
C     0.35458   1.62693   1.51098
N     0.22019   2.15509   2.54500
N    -0.21805   1.40977  -0.78368
C    -1.14205   1.16692  -1.51081
C    -2.07897  -0.73379  -0.84249
C    -1.55635  -1.61706  -1.95027
C    -1.66554  -0.85248   0.46070
C    -2.38574  -0.23469   1.61639
H     3.45871  -1.75541  -0.73726
H     2.70002  -1.94587  -2.34136
H     1.95434  -2.69684  -0.89979
H     1.17319  -0.27185  -1.86236
H    -1.54295   1.54589  -2.45544
H    -3.05186  -0.25707  -1.01729
H    -1.47970  -1.08643  -2.91336
H    -2.23959  -2.46889  -2.11278
H    -0.56434  -2.02244  -1.70278
H    -0.83686  -1.52984   0.69268
H    -3.08841   0.54504   1.28305
H    -1.69852   0.20898   2.35419
H    -2.96889  -1.00221   2.15900
