72
Generated by autodE on: 2022-06-14. E = -1614.640478 Ha
C     0.25444   4.83320   0.21297
C    -0.42526   3.48275   0.57107
C    -1.87404   3.73695   0.71649
N    -2.99711   3.95479   0.91292
C     0.04089   3.09163   2.00640
C     1.53894   2.86662   2.20015
C     2.24156   1.99464   1.16548
C     1.81968   0.53291   1.00863
C     0.38170   0.15371   0.50106
C     0.40702  -1.33696   0.00941
C     1.58606  -2.01639  -0.33527
C     1.56625  -3.35195  -0.75531
C     0.36434  -4.05152  -0.83941
C    -0.82123  -3.39506  -0.49596
C    -0.79401  -2.06735  -0.07460
C    -0.68757   0.16790   1.61296
C    -0.38329  -0.29273   2.90248
C    -1.35686  -0.32277   3.90366
C    -2.66445   0.09197   3.63243
C    -2.98871   0.51745   2.34217
C    -2.01176   0.54619   1.34438
C     0.03285   1.14201  -0.62519
C    -0.23300   2.46644  -0.58102
C    -0.24397   3.04059  -1.99471
C    -1.44915   3.84570  -2.43607
C    -2.74727   3.34239  -2.27815
C    -3.84872   4.07123  -2.72773
C    -3.66382   5.31306  -3.34625
C    -2.37202   5.81950  -3.51433
C    -1.27093   5.08488  -3.06410
O    -0.14322   1.89739  -2.84937
C     0.24071   0.74928  -2.10802
C     1.70388   0.56164  -2.32492
N     2.85003   0.51609  -2.49810
C    -0.56724  -0.42296  -2.65939
C    -1.95789  -0.39694  -2.49143
C    -2.75223  -1.40372  -3.03607
C    -2.16308  -2.44930  -3.75702
C    -0.77812  -2.47408  -3.93155
C     0.01815  -1.46040  -3.38850
H     0.16182   5.51734   1.06740
H     1.32038   4.66918   0.00802
H    -0.20154   5.31573  -0.65786
H    -0.52254   2.22506   2.34788
H    -0.27173   3.92383   2.65548
H     2.05428   3.84039   2.22293
H     1.67248   2.42787   3.20368
H     2.21214   2.48895   0.18178
H     3.31108   1.96443   1.43327
H     2.52915   0.13534   0.27892
H     2.01441  -0.01864   1.93860
H     2.55397  -1.52461  -0.29662
H     2.50792  -3.84078  -1.01647
H     0.34804  -5.09302  -1.16869
H    -1.77869  -3.91693  -0.56007
H    -1.73660  -1.59083   0.18378
H     0.62555  -0.62797   3.14300
H    -1.08885  -0.67193   4.90382
H    -3.42368   0.07604   4.41782
H    -4.00586   0.83893   2.10656
H    -2.28642   0.88585   0.34677
H     0.65725   3.66415  -2.12791
H    -2.89964   2.38504  -1.77980
H    -4.85640   3.67236  -2.59008
H    -4.52680   5.88473  -3.69597
H    -2.21964   6.78631  -3.99971
H    -0.25932   5.47663  -3.19814
H    -2.41646   0.40768  -1.91858
H    -3.83464  -1.37732  -2.89181
H    -2.78385  -3.24252  -4.17990
H    -0.30870  -3.28620  -4.49103
H     1.09972  -1.49250  -3.52749
