44
Generated by autodE on: 2022-06-14. E = -906.080136 Ha
C     3.08137  -1.94085   2.56600
C     2.46065  -0.57069   2.22903
C     2.27014   0.19201   3.47959
N     2.14192   0.79729   4.46159
C     1.16703  -0.65722   1.53578
C     0.30726  -0.37002   0.73190
C    -0.35992   0.29511  -0.39382
C    -1.82608   0.65076  -0.11118
C    -2.60318   1.22987  -1.12659
C    -3.92919   1.59495  -0.88738
C    -4.50294   1.38110   0.37131
C    -3.73734   0.80123   1.38543
C    -2.40693   0.43999   1.14497
C    -0.29678  -0.62590  -1.62704
C     0.10530  -0.17520  -2.89030
C     0.09858  -1.04173  -3.99036
C    -0.30954  -2.36861  -3.84294
C    -0.71383  -2.82702  -2.58363
C    -0.70529  -1.96220  -1.48896
C     0.46206   1.61988  -0.55063
C     1.99814   1.48114  -0.62516
C     2.81401   1.55382   0.69690
C     3.39432   0.24945   1.27568
H     2.43494  -2.50551   3.25258
H     3.20280  -2.51573   1.63712
H     4.06714  -1.80337   3.03329
H    -2.16967   1.39004  -2.11588
H    -4.51937   2.04499  -1.68939
H    -5.54206   1.66258   0.55760
H    -4.17450   0.62612   2.37154
H    -1.81481  -0.01128   1.94368
H     0.42528   0.85650  -3.03437
H     0.41761  -0.67134  -4.96763
H    -0.31267  -3.04331  -4.70225
H    -1.03644  -3.86295  -2.45397
H    -1.02427  -2.32535  -0.50881
H     0.19549   2.26100   0.30382
H     0.08972   2.13895  -1.44556
H     2.34516   2.31126  -1.25986
H     2.26699   0.56428  -1.17464
H     3.68151   2.20323   0.50308
H     2.22900   2.07736   1.47300
H     3.67451  -0.43247   0.45759
H     4.31359   0.46850   1.84134
