72
Generated by autodE on: 2022-06-14. E = -1614.533677 Ha. Imaginary frequency = -185.5 cm-1
C     1.19124   4.82999  -0.29104
C     0.08924   3.94156   0.32258
C    -1.21534   4.62946   0.23077
N    -2.22607   5.19385   0.30765
C     0.29965   3.76926   1.86637
C     1.52951   2.96592   2.31124
C     1.28851   1.49756   2.70707
C     1.49384   0.41659   1.64376
C     0.35527   0.13767   0.59352
C     0.82925  -1.09893  -0.19854
C     2.04208  -1.02782  -0.90193
C     2.57160  -2.14837  -1.54329
C     1.90018  -3.37376  -1.48733
C     0.68527  -3.45263  -0.80557
C     0.15256  -2.32514  -0.17239
C    -0.98066  -0.12920   1.31739
C    -1.01309  -0.99025   2.42803
C    -2.20990  -1.26672   3.09154
C    -3.40745  -0.68806   2.65812
C    -3.38856   0.17143   1.55843
C    -2.18589   0.44965   0.89978
C     0.21102   1.37712  -0.22124
C     0.04167   2.59728  -0.31419
C    -0.72108   2.99875  -2.63491
C    -1.71033   4.04243  -2.74604
C    -3.09093   3.77251  -2.61997
C    -4.01572   4.80466  -2.73136
C    -3.58675   6.11829  -2.97103
C    -2.22177   6.39211  -3.10868
C    -1.28795   5.36402  -2.99940
O    -1.13858   1.76696  -2.75636
C    -0.34930   0.67570  -2.73162
C     0.99423   0.85575  -3.13221
N     2.09302   1.05219  -3.47984
C    -1.03698  -0.60439  -2.84598
C    -2.35078  -0.75627  -2.35527
C    -3.00405  -1.98250  -2.45873
C    -2.36819  -3.07882  -3.05519
C    -1.07132  -2.93021  -3.55677
C    -0.41106  -1.70710  -3.45765
H     1.20792   5.80809   0.21100
H     2.16581   4.34209  -0.15521
H     1.02946   4.98605  -1.36398
H    -0.60925   3.30507   2.27886
H     0.34928   4.78964   2.27712
H     1.92818   3.47880   3.20006
H     2.33117   3.02449   1.55711
H     0.29371   1.39736   3.17143
H     2.00900   1.25670   3.50554
H     1.67938  -0.54028   2.15314
H     2.41225   0.63999   1.08228
H     2.58058  -0.08129  -0.95514
H     3.51417  -2.06153  -2.08935
H     2.31437  -4.25428  -1.98414
H     0.13321  -4.39470  -0.77423
H    -0.80530  -2.41269   0.33752
H    -0.09493  -1.46321   2.77824
H    -2.20527  -1.93928   3.95276
H    -4.34454  -0.90351   3.17691
H    -4.31293   0.63606   1.20671
H    -2.19088   1.13510   0.05374
H     0.33430   3.20954  -2.81928
H    -3.42387   2.75159  -2.42565
H    -5.08182   4.59005  -2.62758
H    -4.31822   6.92536  -3.05404
H    -1.88472   7.41252  -3.30425
H    -0.22262   5.57362  -3.11423
H    -2.85054   0.08882  -1.88264
H    -4.01771  -2.08561  -2.06397
H    -2.88133  -4.04024  -3.12863
H    -0.56449  -3.77686  -4.02520
H     0.60287  -1.60541  -3.84770
