37
Generated by autodE on: 2022-06-18. E = -913.259764 Ha
C    -4.55204   0.87870   0.76930
N    -3.14410   0.86138   0.43602
C    -2.68754   0.57998  -0.79049
O    -3.42084   0.36101  -1.76590
C    -1.17127   0.52350  -0.93497
N    -0.45621   1.02725   0.24406
C     0.76655   0.26157   0.46215
C     0.69105  -0.40538   1.78143
N     0.58981  -0.87091   2.83962
C     2.00305   1.21646   0.45787
O     1.85203   2.40207   0.16621
N     3.17125   0.65339   0.77475
C     4.41315   1.40507   0.75754
C     0.82544  -0.74311  -0.72570
C     1.61234  -2.00372  -0.52343
O     2.43689  -2.16569   0.35621
C    -0.65488  -0.92840  -1.15892
C    -1.37930  -1.94195  -0.25869
C    -0.76843  -1.34969  -2.62342
H    -5.12624   1.34815  -0.04199
H    -4.95055  -0.13874   0.92345
H    -4.70196   1.45488   1.69146
H    -2.43225   0.97443   1.15420
H    -0.92710   1.11379  -1.83434
H    -0.18880   2.00645   0.13225
H     3.19535  -0.35891   0.90363
H     4.30060   2.34314   1.31978
H     5.19949   0.80051   1.22539
H     4.72101   1.65515  -0.27095
H     1.33739  -0.22516  -1.55795
H     1.42368  -2.80432  -1.27230
H    -1.38562  -1.64220   0.79838
H    -2.42366  -2.05769  -0.58364
H    -0.90189  -2.93151  -0.32883
H    -0.21294  -0.65957  -3.27701
H    -1.82234  -1.34502  -2.93466
H    -0.37048  -2.36522  -2.77181
