14
Generated by autodE on: 2022-06-18. E = -270.683219 Ha
C    -1.14243  -0.81477   0.74401
C    -0.67732   0.50942   0.20928
C    -1.61566   1.66067   0.38884
C     0.52163   0.68859  -0.41008
C     1.51925  -0.34352  -0.64827
O     1.43585  -1.53074  -0.34177
H    -1.21657  -1.55932  -0.06491
H    -0.41984  -1.22587   1.46609
H    -2.12316  -0.72331   1.23136
H    -1.22187   2.59812  -0.02739
H    -2.58498   1.43178  -0.08823
H    -1.83318   1.80385   1.46198
H     0.78632   1.68706  -0.77014
H     2.43881   0.02368  -1.16549
