37
Generated by autodE on: 2022-06-18. E = -913.197679 Ha. Imaginary frequency = -381.0 cm-1
C    -4.62552  -0.58587   0.50036
N    -3.60140  -0.00911  -0.34740
C    -2.33872   0.15526   0.09265
O    -2.01341  -0.04648   1.26883
C    -1.36576   0.57586  -0.95293
N    -0.26825   1.31763  -0.62494
C     0.68684   1.01922   0.28678
C     0.49562   0.77730   1.67138
N     0.56671   0.61620   2.82469
C     2.05091   1.46904  -0.15933
O     2.17606   2.00221  -1.27143
N     3.07779   1.22028   0.66430
C     4.44655   1.50144   0.27350
C     0.63677  -1.31604  -0.49923
C     0.54368  -2.00055   0.76755
O     1.50392  -2.19604   1.51777
C    -0.41121  -1.23289  -1.45770
C    -1.55988  -2.22543  -1.42511
C     0.04068  -0.87065  -2.86093
H    -5.59026  -0.53202  -0.01836
H    -4.69967  -0.03349   1.44848
H    -4.40634  -1.64096   0.73700
H    -3.79061   0.10221  -1.33824
H    -1.81182   0.89371  -1.89804
H     0.18795   1.76432  -1.43156
H     2.91030   0.68061   1.50866
H     4.54559   2.54567  -0.05608
H     5.10134   1.33635   1.13725
H     4.77364   0.84830  -0.55230
H     1.65506  -1.07597  -0.81283
H    -0.46832  -2.34160   1.07587
H    -2.39233  -1.88333  -2.05560
H    -1.94501  -2.41819  -0.41576
H    -1.20835  -3.18649  -1.83700
H     0.53231  -1.74389  -3.32393
H    -0.80627  -0.58646  -3.50236
H     0.77051  -0.04769  -2.84804
