29
Generated by autodE on: 2022-06-17. E = -833.269594 Ha
C     3.79555  -0.58509   0.20889
O     2.51364  -0.53334  -0.44597
C     1.66184   0.38202  -0.02195
O     1.88684   1.24575   0.79214
C     0.31390   0.29594  -0.79000
C     0.62111   0.35040  -2.23003
N     0.85636   0.40392  -3.36400
N    -0.55725   1.44005  -0.45339
N    -1.59929   0.93804   0.39886
C    -1.42023   1.07649   1.71950
N    -1.34007   1.30291   2.86271
C    -1.97138  -0.38697  -0.16428
C    -2.75625  -0.17784  -1.45865
C    -2.79551  -1.19584   0.82954
C    -0.54129  -0.98300  -0.48389
C    -0.05025  -1.82977   0.66546
O     0.69193  -1.44327   1.54166
H     3.65639  -0.81707   1.27415
H     4.31627   0.37587   0.09845
H     4.35354  -1.38542  -0.28873
H    -0.02694   2.15719   0.04833
H    -2.98657  -1.15663  -1.90197
H    -2.19378   0.41226  -2.19426
H    -3.69943   0.34240  -1.23797
H    -3.01326  -2.18319   0.40028
H    -2.28731  -1.34142   1.79314
H    -3.74924  -0.68176   1.01672
H    -0.60770  -1.63542  -1.36356
H    -0.45909  -2.86362   0.67311
