15
Generated by autodE on: 2022-06-17. E = -562.554861 Ha
C    -3.45235   0.75261  -1.09185
O    -2.17385   0.73698  -0.42803
C    -1.29658  -0.16053  -0.83927
O    -1.46356  -0.97463  -1.72563
C    -0.02149  -0.07570  -0.07671
C     0.16742   0.88112   0.94831
N     0.25381   1.69201   1.77877
N     0.89305  -0.96251  -0.45037
N     2.10375  -1.23410  -0.07745
C     2.67300  -0.52918   0.88842
N     3.33255  -0.02101   1.71201
H    -3.31712   0.95661  -2.16313
H    -4.02349   1.55664  -0.61581
H    -3.95797  -0.21348  -0.95551
H     0.55278  -1.57020  -1.21536
