29
Generated by autodE on: 2022-06-17. E = -833.226085 Ha. Imaginary frequency = -367.6 cm-1
C     4.18474  -0.30559  -0.61415
O     2.82895   0.04699  -0.95210
C     2.03837   0.39896   0.04650
O     2.35233   0.48489   1.21400
C     0.63839   0.64986  -0.41750
C     0.38590   0.90664  -1.80301
N     0.19767   1.11903  -2.92964
N    -0.19230   1.17810   0.50238
N    -1.49368   1.02482   0.21242
C    -2.36280   1.57464   1.05057
N    -3.21671   2.02119   1.71321
C    -1.77181  -0.94899  -0.08384
C    -2.78412  -0.86451  -1.19678
C    -2.32576  -1.34679   1.26406
C    -0.44676  -1.35317  -0.46735
C     0.51604  -2.01314   0.40627
O     0.49980  -2.03139   1.63223
H     4.18510  -1.16106   0.07586
H     4.69191   0.55119  -0.14977
H     4.66671  -0.57277  -1.56047
H     0.12533   1.10844   1.47967
H    -3.17053  -1.87708  -1.40332
H    -2.33795  -0.46810  -2.11919
H    -3.63820  -0.23578  -0.90557
H    -2.45452  -2.44202   1.28074
H    -1.65359  -1.08055   2.08657
H    -3.31280  -0.89263   1.42702
H    -0.27874  -1.52943  -1.53156
H     1.35411  -2.50052  -0.14487
