21
Generated by autodE on: 2022-10-06. E = -478.763738 Ha
C    -2.94121   1.35544   0.11392
C    -2.18981   0.05449  -0.06478
O    -2.79647  -0.98487  -0.28248
C    -0.75518   0.19245   0.03974
N     0.15302  -0.79485  -0.04639
C    -0.28874  -2.20048  -0.20880
C     1.48874  -0.61019  -0.00541
C     2.16106   0.65241   0.11530
C     3.67250   0.57308   0.13913
O     1.59024   1.74618   0.20741
H    -2.61005   2.09777  -0.63028
H    -2.73655   1.78315   1.10903
H    -4.01916   1.17860   0.00398
H    -0.33447   1.18430   0.17940
H    -0.70537  -2.33380  -1.21429
H     0.57558  -2.85568  -0.06883
H    -1.06582  -2.42765   0.52531
H     2.08730  -1.51512  -0.07245
H     4.00851   0.11034   1.08241
H     4.05476  -0.05031  -0.68403
H     4.09397   1.58448   0.06762
