10
Generated by autodE on: 2022-10-06. E = -455.046588 Ha
O     2.79724  -0.43415   0.01279
C     1.57809  -0.09856   0.01021
O     1.14360   1.08178   0.12665
C     0.57996  -1.22096  -0.14830
C    -0.75706  -1.08748  -0.14867
C    -1.56197   0.19049   0.00211
O    -1.89857   0.77069  -1.06265
O    -1.89939   0.51072   1.17092
H     1.02100  -2.21738  -0.26755
H    -1.37063  -1.99076  -0.27266
