24
Generated by autodE on: 2022-06-17. E = -555.942052 Ha
C     2.83045   1.85025  -0.81373
C     2.37819   0.53432  -0.26143
C     3.27823  -0.41510   0.22551
N     4.12582  -1.13071   0.62038
O     1.04083   0.40318  -0.19762
C     0.21681  -0.54856   0.12904
C     0.74385  -1.88198   0.50324
C    -1.18580  -0.18133   0.05465
C    -1.57338   1.10237  -0.40600
C    -2.91586   1.45484  -0.48352
C    -3.91325   0.54709  -0.10069
C    -3.54664  -0.72011   0.36263
C    -2.20314  -1.08468   0.44125
H     2.49142   1.99699  -1.85450
H     3.92802   1.90008  -0.80642
H     2.44852   2.69681  -0.21536
H    -0.05700  -2.61860   0.61760
H     1.31609  -1.83736   1.44512
H     1.43625  -2.23728  -0.27921
H    -0.80652   1.81717  -0.70570
H    -3.19129   2.44812  -0.84581
H    -4.96689   0.82819  -0.16231
H    -4.31430  -1.43460   0.66848
H    -1.94740  -2.07686   0.81326
