24
Generated by autodE on: 2022-07-27. E = -555.941971 Ha
C    -2.99333  -1.34700   1.11205
C    -2.37597  -0.09057   0.58078
C    -3.11611   1.07955   0.40013
N    -3.84046   2.00163   0.29325
O    -1.06470  -0.20525   0.30894
C    -0.13181   0.57386  -0.15319
C    -0.45584   1.97279  -0.51999
C     1.17362  -0.05261  -0.26071
C     2.29984   0.66952  -0.71900
C     3.54831   0.05644  -0.81608
C     3.70992  -1.28637  -0.46177
C     2.60284  -2.01542  -0.00548
C     1.35398  -1.41318   0.09547
H    -2.91191  -2.17977   0.39095
H    -2.51418  -1.67163   2.05284
H    -4.05998  -1.18112   1.31653
H    -0.83759   2.52319   0.35670
H     0.41455   2.50623  -0.91334
H    -1.25082   1.99204  -1.28477
H     2.20388   1.71807  -0.99993
H     4.40327   0.63578  -1.17216
H     4.68939  -1.76332  -0.53986
H     2.71781  -3.06548   0.27360
H     0.50036  -1.99084   0.45109
