36
Generated by autodE on: 2022-06-17. E = -713.245009 Ha. Imaginary frequency = -294.9 cm-1
C    -3.08064   0.41355  -1.83266
C    -2.11358  -0.62021  -1.33865
C    -0.78372  -0.64410  -1.68204
C     0.04884  -1.88986  -1.55388
C     0.17569   0.62321   0.14608
C    -0.32639   1.97586  -0.23953
C     1.59798   0.28617   0.09171
C     2.47073   0.95780  -0.79121
C     3.81185   0.58688  -0.88823
C     4.31926  -0.45410  -0.10404
C     3.46625  -1.12385   0.78155
C     2.12489  -0.76283   0.87925
O    -0.49658  -0.11296   1.01995
C    -1.82970  -0.22087   1.18445
C    -2.25019  -1.48787   1.86789
C    -2.66169   0.90776   1.27909
N    -3.44945   1.77484   1.35869
H    -2.56266   1.24348  -2.33705
H    -3.77610  -0.03818  -2.56290
H    -3.70516   0.83860  -1.02964
H    -2.55101  -1.52814  -0.91230
H    -0.40930   0.14044  -2.34840
H     1.12599  -1.67937  -1.60352
H    -0.15391  -2.41369  -0.60576
H    -0.18095  -2.59714  -2.37125
H    -0.17635   2.68017   0.59956
H     0.21943   2.36352  -1.10665
H    -1.39104   1.97072  -0.48618
H     2.09952   1.76593  -1.42166
H     4.46624   1.11742  -1.58393
H     5.37073  -0.74009  -0.18013
H     3.85167  -1.93545   1.40344
H     1.47097  -1.29041   1.57339
H    -1.76415  -2.35504   1.39558
H    -3.33911  -1.61385   1.78065
H    -1.99554  -1.49222   2.94379
