54
Generated by autodE on: 2022-06-02. E = -1203.829016 Ha
C    -3.60676   5.60267   3.89944
N    -2.27691   5.33737   4.41663
C    -1.78147   3.96916   4.43897
C    -1.38551   3.51677   3.02467
C    -2.82930   3.05703   4.99583
N    -3.70294   2.43298   5.43726
C    -0.63835   4.05267   5.46584
C    -0.67463   5.21400   6.15208
C     0.16439   5.68477   7.34226
C    -0.19673   7.10309   7.84439
C     1.64514   5.80173   6.90370
C    -0.07100   4.75225   8.60676
C    -0.80168   3.41091   8.48080
C     0.07065   2.23088   8.04978
C     1.03282   2.52822   6.91089
C     0.34705   2.86511   5.53984
C    -0.30606   1.59275   5.15277
N    -0.75860   0.55118   4.92417
C     1.41554   3.12767   4.54993
N     2.26807   3.36690   3.80181
C    -1.87301   6.04184   5.62980
C    -2.93188   5.94551   6.67616
N    -3.78029   5.77510   7.44948
C    -1.56293   7.49477   5.26412
C    -2.37632   8.55738   5.66349
C    -2.06509   9.86458   5.27404
C    -0.94002  10.11198   4.48454
C    -0.13156   9.04504   4.07287
C    -0.44564   7.74135   4.45520
H    -3.74353   6.68892   3.80355
H    -4.41442   5.20598   4.54395
H    -3.71222   5.16170   2.89947
H    -0.58603   4.17229   2.65555
H    -1.04676   2.47422   2.99568
H    -2.25358   3.59638   2.35622
H     0.39681   7.29010   8.75179
H    -1.25479   7.19796   8.12373
H     0.05162   7.88783   7.12204
H     1.75069   6.64431   6.20461
H     2.04981   4.92257   6.39268
H     2.27567   6.00612   7.78218
H     0.90676   4.59489   9.09132
H    -0.66039   5.35263   9.31271
H    -1.21645   3.17038   9.47274
H    -1.67650   3.50942   7.82105
H     0.69975   1.92116   8.90036
H    -0.56125   1.36273   7.80212
H     1.67376   1.65613   6.71806
H     1.70258   3.34770   7.17983
H    -3.25084   8.37239   6.29015
H    -2.70587  10.69016   5.59183
H    -0.69353  11.13332   4.18542
H     0.74770   9.23123   3.45197
H     0.18416   6.90979   4.13375
