28
Generated by autodE on: 2022-06-02. E = -575.361731 Ha
C     2.41275  -0.29662  -2.30340
C     1.02495   0.34818  -2.12963
C     0.89470   1.57177  -3.04972
C     0.80354   0.68772  -0.72329
C     0.44277   0.66644   0.43405
C    -0.35505   0.13050   1.54643
C    -1.58679   0.93445   1.71410
N    -2.57017   1.53917   1.81474
C     0.38160   0.13448   2.82746
N     0.97277   0.10299   3.82351
C    -0.73922  -1.35499   1.17180
C    -1.32884  -1.53351  -0.23839
C    -0.35531  -1.80713  -1.41990
C    -0.11249  -0.67928  -2.44408
H     3.20922   0.40895  -2.02257
H     2.55569  -0.57936  -3.35782
H     2.51894  -1.19869  -1.68316
H    -0.07347   2.07475  -2.90622
H     1.69781   2.29838  -2.85325
H     0.96738   1.25338  -4.10120
H    -1.45186  -1.69740   1.93645
H     0.18081  -1.94699   1.28491
H    -1.98977  -0.68297  -0.47725
H    -1.99769  -2.40367  -0.15795
H     0.60691  -2.17860  -1.02952
H    -0.77908  -2.64875  -1.98904
H    -1.05111  -0.11858  -2.58587
H     0.13741  -1.12515  -3.42098
