26
Generated by autodE on: 2022-07-27. E = -628.374471 Ha
C    -1.16462  -3.45560  -1.10640
C    -0.93603  -2.26442  -0.22591
C    -1.30070  -2.34563   1.13413
N    -1.57221  -2.48506   2.26344
N    -0.36514  -1.13103  -0.68316
C     0.28842  -1.19784  -2.00617
C    -0.44449   0.08226  -0.03970
C    -1.58595   0.34842   0.74274
N    -2.54039   0.63044   1.35976
C     0.61195   1.09648  -0.11921
C     0.28786   2.46384   0.01476
C     1.28223   3.43936  -0.02558
C     2.62253   3.07744  -0.20420
C     2.95828   1.72512  -0.32710
C     1.96969   0.74255  -0.27447
H    -1.66702  -4.24498  -0.53360
H    -1.79709  -3.20191  -1.97376
H    -0.21557  -3.86356  -1.49091
H     0.62555  -0.20126  -2.29661
H    -0.45177  -1.54809  -2.73695
H     1.13276  -1.89788  -1.98088
H    -0.75583   2.75857   0.14400
H     1.00785   4.49201   0.07604
H     3.40026   3.84361  -0.23914
H     4.00291   1.42890  -0.44863
H     2.25760  -0.30812  -0.33444
