54
Generated by autodE on: 2022-06-02. E = -1203.735939 Ha. Imaginary frequency = -274.6 cm-1
C    -1.96789   5.64442   2.79867
N    -2.41444   5.37637   4.17591
C    -2.60726   4.06662   4.51133
C    -2.74410   3.02136   3.43268
C    -3.31103   3.72505   5.71518
N    -3.86949   3.31570   6.65160
C    -0.70272   4.02771   5.79613
C    -0.77762   5.03579   6.52956
C    -0.42937   5.67315   7.83732
C    -1.66129   5.62951   8.76544
C     0.05546   7.12378   7.71423
C     0.71932   4.82561   8.46437
C     0.44989   3.31329   8.58301
C     1.34767   2.42102   7.71646
C     1.45287   2.75406   6.22886
C     0.09423   2.81571   5.43865
C    -0.68716   1.58768   5.69868
N    -1.29332   0.63262   5.94963
C     0.44612   2.86897   4.00155
N     0.77386   2.95911   2.89375
C    -2.33055   6.36018   5.14458
C    -3.43602   6.48441   6.03355
N    -4.35501   6.66879   6.72868
C    -1.53798   7.58781   4.89810
C    -2.05811   8.85765   5.20501
C    -1.28100  10.00452   5.03422
C     0.02516   9.90395   4.54655
C     0.55015   8.64482   4.23301
C    -0.21840   7.49712   4.41325
H    -1.95479   6.72267   2.62857
H    -2.68679   5.19318   2.10463
H    -0.97048   5.22470   2.61300
H    -1.91609   3.05273   2.71653
H    -2.77607   2.02387   3.88735
H    -3.68842   3.16771   2.87985
H    -1.36227   5.95671   9.77366
H    -2.08338   4.61711   8.84181
H    -2.45396   6.29810   8.40971
H    -0.74177   7.78985   7.36271
H     0.90603   7.20718   7.02308
H     0.38102   7.47574   8.70558
H     1.63511   5.00618   7.87884
H     0.90874   5.25532   9.46079
H     0.58818   2.99526   9.62811
H    -0.60399   3.09538   8.35255
H     2.38009   2.46214   8.10270
H     1.02355   1.37337   7.82913
H     2.07926   1.99536   5.73665
H     1.92869   3.73099   6.06449
H    -3.07642   8.94787   5.58749
H    -1.70137  10.98222   5.28058
H     0.63340  10.80156   4.41401
H     1.57354   8.55488   3.86165
H     0.21630   6.51910   4.20682
