31
Generated by autodE on: 2022-07-27. E = -913.409801 Ha
C    -4.16727   2.43103   1.13860
O    -3.46027   1.29893   0.61422
C    -2.13088   1.39216   0.57350
O    -1.51275   2.38117   0.96365
C    -1.44554   0.20981   0.05615
N    -0.09465   0.35993   0.10018
C     0.95895  -0.27466  -0.40286
C     0.79726  -1.29884  -1.37827
N     0.75238  -2.09261  -2.22874
C     2.31764   0.13697  -0.02996
C     2.55303   0.93036   1.11256
C     3.84623   1.34026   1.43076
C     4.92850   0.95381   0.63265
C     4.70717   0.14996  -0.49028
C     3.41634  -0.25700  -0.82111
C    -2.12100  -1.03826  -0.30050
O    -3.26128  -1.13365  -0.72039
O    -1.33853  -2.10484  -0.06257
C    -1.82315  -3.38029  -0.49792
H    -3.88734   2.61021   2.18692
H    -5.23132   2.17719   1.06932
H    -3.95214   3.33088   0.54426
H     0.13421   1.23046   0.60672
H     1.73508   1.21136   1.77933
H     4.01105   1.95243   2.31994
H     5.94141   1.26972   0.89135
H     5.54576  -0.16067  -1.11711
H     3.25606  -0.87430  -1.70656
H    -2.04255  -3.36211  -1.57500
H    -2.73136  -3.65611   0.05703
H    -1.01985  -4.09589  -0.28889
