37
Generated by autodE on: 2022-06-18. E = -992.024663 Ha. Imaginary frequency = -400.0 cm-1
C    -3.68483   2.58452   1.87882
O    -3.12580   1.52525   1.08668
C    -1.82046   1.30786   1.21536
O    -1.09458   1.94423   1.96607
C    -1.29931   0.25087   0.32099
C    -2.21813  -0.80233  -0.18767
O    -3.26483  -0.60336  -0.77285
O    -1.75861  -2.02475   0.10426
C    -2.46705  -3.13583  -0.46051
C    -0.99595   1.44426  -1.56141
C     0.28578   1.11006  -1.96714
C     0.93159  -0.43254  -0.35535
C     0.60736  -1.51227  -1.24010
N     0.41660  -2.37606  -1.99679
C     2.36833  -0.18983  -0.08768
C     2.76883   0.97030   0.60421
C     4.11844   1.21522   0.84969
C     5.09325   0.31850   0.39679
C     4.70559  -0.82574  -0.30537
C     3.35439  -1.08071  -0.54621
N     0.02190  -0.01653   0.56839
H    -3.20124   3.54122   1.63498
H    -4.74948   2.61988   1.62173
H    -3.55801   2.37065   2.94972
H    -2.47698  -3.06258  -1.55748
H    -1.92095  -4.03249  -0.14647
H    -3.49894  -3.16582  -0.08299
H    -1.15871   2.38249  -1.02603
H    -1.86946   1.02944  -2.06718
H     1.12884   1.75152  -1.70328
H     0.44062   0.43304  -2.80904
H     2.02880   1.70220   0.93577
H     4.41168   2.11955   1.38739
H     6.15072   0.51612   0.58565
H     5.45824  -1.53051  -0.66557
H     3.06422  -1.98204  -1.08884
H     0.39958   0.63436   1.26232
