59
Generated by autodE on: 2022-06-07. E = -1554.170109 Ha
C     3.37002  -1.12379   3.23429
N     2.44223  -0.95301   2.13232
C     2.75544  -0.23088   1.05543
O     3.84308   0.31894   0.87151
C     1.65657  -0.11529  -0.02549
C     2.31971  -0.72912  -1.28839
O     3.05605  -0.15803  -2.05590
O     2.05339  -2.03382  -1.33850
C     2.56609  -2.74849  -2.47236
O     0.52110  -0.84877   0.36082
C    -0.67922  -0.34218  -0.25110
C    -0.71943  -1.03144  -1.64577
O    -0.09309  -0.53190  -2.58852
N    -1.35622  -2.20067  -1.72596
C    -1.30552  -3.02871  -2.91635
C    -1.84963  -0.75107   0.63502
C    -1.64614  -1.48385   1.81211
C    -2.73132  -1.88201   2.60003
C    -4.03496  -1.56011   2.21960
C    -4.24676  -0.83926   1.03963
C    -3.16544  -0.44166   0.25317
C    -0.41623   1.20900  -0.43074
C    -1.01861   1.72910  -1.75176
C    -0.24334   2.55595  -2.73994
O    -2.20703   1.51576  -1.94420
C    -1.00436   2.04228   0.75912
C    -0.73316   3.54462   0.53683
C     0.80613   3.65539   0.73073
C     1.21857   2.21274   1.10301
C    -0.01094   1.73554   1.89215
C     1.14295   1.35443  -0.18034
F     1.83851   1.98473  -1.18907
H     2.95000  -1.84836   3.94189
H     3.54585  -0.17181   3.76054
H     4.33871  -1.49702   2.87018
H     1.50560  -1.33919   2.18626
H     2.12351  -2.34751  -3.39515
H     2.26918  -3.79347  -2.32977
H     3.66100  -2.66426  -2.51904
H    -1.82616  -2.55463  -0.89824
H    -1.37064  -2.39851  -3.81338
H    -2.15114  -3.72752  -2.90424
H    -0.36753  -3.60570  -2.96576
H    -0.63853  -1.75148   2.12212
H    -2.54943  -2.44953   3.51558
H    -4.88215  -1.87130   2.83523
H    -5.26193  -0.58324   0.72750
H    -3.33047   0.12642  -0.66084
H    -0.93401   2.87389  -3.53192
H     0.20919   3.43420  -2.26012
H     0.57612   1.96382  -3.16517
H    -2.05677   1.80986   0.94549
H    -1.27145   4.11643   1.30614
H    -1.08011   3.91627  -0.43644
H     1.05947   4.32885   1.56118
H     1.33073   4.01717  -0.16230
H     2.19408   2.15064   1.59702
H     0.02241   0.68584   2.20032
H    -0.19419   2.35584   2.78140
