37
Generated by autodE on: 2022-06-07. E = -1029.220675 Ha
C    -3.37125   2.38319   2.21918
N    -3.02398   1.25372   1.38343
C    -1.75477   1.06871   0.95431
O    -0.80714   1.77082   1.36455
C    -1.53604   0.02930  -0.04620
O    -0.27136  -0.21611  -0.47988
C     0.87378  -0.12775   0.10556
C     0.93376  -0.07379   1.61429
O     0.20366  -0.83898   2.24877
N     1.85189   0.72992   2.16579
C     1.91538   0.90965   3.60454
C     2.01999  -0.33509  -0.75652
C     3.30927  -0.59402  -0.23534
C     4.38351  -0.80285  -1.09649
C     4.19792  -0.75908  -2.48217
C     2.92367  -0.50940  -3.01026
C     1.84410  -0.29813  -2.16197
C    -2.55350  -0.51820  -0.90303
O    -3.76765  -0.38152  -0.72219
O    -2.06438  -1.23993  -1.93585
C    -3.02864  -1.81541  -2.82161
H    -2.70212   2.43821   3.09033
H    -4.40193   2.25934   2.57522
H    -3.30036   3.34441   1.68014
H    -3.74901   0.74880   0.87426
H     2.33121   1.39500   1.56601
H     2.79388   1.51877   3.84897
H     1.00940   1.41550   3.97815
H     2.00150  -0.06292   4.10927
H     3.46651  -0.65070   0.84058
H     5.37276  -1.00733  -0.68211
H     5.04512  -0.91935  -3.15262
H     2.77678  -0.47362  -4.09174
H     0.85381  -0.09695  -2.57112
H    -3.63595  -1.03484  -3.30384
H    -3.69299  -2.50712  -2.28257
H    -2.45369  -2.36236  -3.57859
