59
Generated by autodE on: 2022-06-07. E = -1554.079764 Ha. Imaginary frequency = -247.7 cm-1
C     4.70889   0.14285   2.49656
N     3.86217  -0.17240   1.36535
C     2.60331  -0.62872   1.53901
O     2.14071  -0.88676   2.66132
C     1.79134  -0.77355   0.30419
C     2.46702  -1.19547  -0.93299
O     3.43612  -0.62385  -1.41146
O     1.97171  -2.33737  -1.42372
C     2.48620  -2.78318  -2.68580
O     0.54088  -1.20366   0.58054
C    -0.57597  -1.14250  -0.09393
C    -0.57607  -1.38550  -1.59717
O     0.05402  -0.68481  -2.38864
N    -1.28934  -2.45457  -1.98031
C    -1.34894  -2.85797  -3.37369
C    -1.78330  -1.26859   0.70855
C    -1.69480  -1.53399   2.09377
C    -2.84467  -1.57718   2.87471
C    -4.10087  -1.35240   2.29622
C    -4.19880  -1.08791   0.92656
C    -3.05396  -1.04914   0.13290
C    -0.30086   1.43553  -0.25785
C    -1.02455   1.65461  -1.52594
C    -0.28969   2.12329  -2.75627
O    -2.25592   1.59788  -1.53201
C    -0.95904   1.88354   1.05087
C    -0.80948   3.43832   1.05126
C     0.72715   3.63475   1.21145
C     1.26145   2.16769   1.34956
C     0.09514   1.50937   2.10659
C     1.06289   1.57331  -0.02392
F     1.97848   1.82499  -0.97020
H     4.29170   0.96715   3.09983
H     4.82962  -0.72950   3.15704
H     5.69693   0.44350   2.12670
H     4.15006   0.08177   0.42413
H     2.28552  -2.03346  -3.46367
H     1.95705  -3.71558  -2.91280
H     3.56777  -2.96690  -2.61727
H    -1.78052  -3.00639  -1.28387
H    -0.36272  -3.19242  -3.73241
H    -1.67648  -2.01814  -4.00434
H    -2.06418  -3.68310  -3.47119
H    -0.71686  -1.71243   2.54065
H    -2.76419  -1.79014   3.94287
H    -5.00143  -1.38505   2.91343
H    -5.17469  -0.90562   0.47164
H    -3.14244  -0.81428  -0.92637
H    -0.14910   3.21427  -2.65027
H    -0.90884   1.93938  -3.64460
H     0.69650   1.66739  -2.87134
H    -1.97977   1.51793   1.20701
H    -1.20786   3.89236   0.13292
H    -1.35736   3.86794   1.90324
H     0.97409   4.19534   2.12457
H     1.18913   4.15571   0.36074
H     2.27254   2.08267   1.76217
H    -0.09316   1.99379   3.07581
H     0.22069   0.43715   2.26327
