23
Generated by autodE on: 2022-07-27. E = -626.187232 Ha
C     2.19189  -0.78973   1.98445
C     2.76863  -0.57824   0.61450
O     3.97502  -0.72215   0.39614
C     1.90868  -0.18547  -0.50492
C     2.52882   0.02548  -1.76181
N     3.04051   0.20159  -2.79527
N     0.56019   0.01062  -0.47546
N    -0.22180  -0.17188   0.51079
C    -1.57076   0.14415   0.34641
C    -2.42152  -0.31355   1.37262
C    -3.79100  -0.06717   1.31438
C    -4.33031   0.64895   0.24017
C    -3.48715   1.12208  -0.77346
C    -2.11628   0.88034  -0.72709
H     1.64194   0.10137   2.32178
H     3.01426  -1.01756   2.67530
H     1.46589  -1.61669   1.97325
H     0.17198   0.33421  -1.37829
H    -1.98348  -0.87029   2.20273
H    -4.44105  -0.43315   2.11202
H    -5.40316   0.84796   0.19558
H    -3.90099   1.69705  -1.60473
H    -1.48687   1.29203  -1.51871
