23
Generated by autodE on: 2022-06-18. E = -626.196670 Ha
C    -4.26279   0.86240  -0.53861
C    -2.83091   1.00689  -0.10990
O    -2.42111   1.97335   0.54139
C    -1.89830  -0.05065  -0.48845
C    -2.24461  -1.19781  -1.22978
N    -2.55270  -2.14061  -1.84499
N    -0.61804   0.12769  -0.07575
N     0.35760  -0.65494  -0.29205
C     1.61039  -0.30741   0.21456
C     1.90385   0.84925   0.96928
C     3.20470   1.07143   1.41230
C     4.22696   0.15915   1.11658
C     3.94029  -0.98752   0.36891
C     2.64218  -1.22093  -0.07900
H    -4.69313  -0.06310  -0.12294
H    -4.84135   1.72794  -0.19249
H    -4.32762   0.78538  -1.63594
H    -0.52054   1.01238   0.46041
H     1.13550   1.58406   1.21799
H     3.42547   1.96790   1.99581
H     5.24355   0.34496   1.46965
H     4.73160  -1.70254   0.13396
H     2.39714  -2.10917  -0.66383
