14
Generated by autodE on: 2022-06-18. E = -270.683213 Ha
C    -0.96256   1.26193   0.03181
C    -0.83905  -0.23188  -0.06291
C    -2.12025  -0.99383  -0.18922
C     0.35337  -0.88820  -0.03938
C     1.66393  -0.26709   0.07803
O     1.90092   0.93532   0.16953
H    -0.42238   1.75348  -0.79300
H    -2.01542   1.57554   0.00430
H    -0.50092   1.63742   0.95864
H    -2.77455  -0.77263   0.67242
H    -1.96431  -2.07950  -0.25403
H    -2.67215  -0.65334  -1.08307
H     0.35775  -1.97961  -0.11294
H     2.51295  -0.99314   0.08136
