28
Generated by autodE on: 2022-06-16. E = -649.748526 Ha
C     3.57752   0.88040  -0.37411
C     2.09240   1.10343  -0.33330
O     1.55497   1.97172  -1.00237
C     1.25758   0.20802   0.59239
C     1.78893   0.28237   2.03086
C     1.26665  -1.24891   0.04712
C    -0.17816  -1.70979   0.22317
C    -0.97205  -0.40965  -0.07929
C    -1.07243  -0.22325  -1.54515
N    -1.09589  -0.03126  -2.68971
C    -2.39957  -0.53221   0.49642
C    -2.58839  -0.18196   1.93980
O    -3.29965  -0.92626  -0.22066
N    -0.16008   0.62067   0.54900
H     4.02819   1.38943   0.49473
H     3.99540   1.31883  -1.28996
H     3.83784  -0.18495  -0.29908
H     2.83887  -0.03682   2.09367
H     1.70808   1.30860   2.42103
H     1.18682  -0.37883   2.67171
H     1.53155  -1.26190  -1.02137
H     1.98420  -1.88442   0.58193
H    -0.47385  -2.53545  -0.43601
H    -0.37566  -2.00073   1.26487
H    -1.75108  -0.53636   2.55683
H    -3.54248  -0.59245   2.29536
H    -2.60938   0.91636   2.03218
H    -0.24821   1.51801   0.07255
