22
Generated by autodE on: 2022-07-27. E = -571.063114 Ha
C    -1.49934  -0.11349   2.10647
C    -1.71000  -0.92464   0.85027
O    -2.59653  -1.78845   0.81333
C    -0.97985  -0.59911  -0.36520
C    -1.54350  -1.03383  -1.58929
N    -2.00924  -1.38582  -2.60096
N     0.12512   0.21352  -0.47667
C     1.16857   0.41610   0.29810
C     1.49733  -0.40028   1.48961
C     2.07487   1.48360  -0.23547
C     3.34657   1.76553   0.49989
O     1.74928   2.07733  -1.25905
H    -2.49485   0.09176   2.52670
H    -0.97302   0.83469   1.93959
H    -0.94345  -0.70170   2.85278
H     0.19369   0.77226  -1.34503
H     0.94786  -1.35178   1.47647
H     1.26424   0.12015   2.43193
H     2.57677  -0.60917   1.49659
H     4.00369   0.88070   0.46541
H     3.85696   2.62040   0.03972
H     3.14097   1.97104   1.56234
