28
Generated by autodE on: 2022-06-16. E = -649.671857 Ha. Imaginary frequency = -423.7 cm-1
C     3.34422   1.76412   0.30974
C     1.96705   1.62817  -0.26554
O     1.61676   2.24004  -1.27057
C     1.01059   0.66865   0.38339
C     1.20428   0.26035   1.81244
C     1.68240  -1.20166  -0.53677
C     0.51987  -1.95866  -0.55019
C    -1.12781  -0.30724  -0.21774
C    -1.82836  -0.46593  -1.45034
N    -2.38950  -0.61101  -2.46209
C    -1.84178  -0.87508   0.95011
C    -1.87565  -0.11920   2.25584
O    -2.48982  -1.91017   0.80808
N    -0.21833   0.72995  -0.19773
H     3.81389   0.77663   0.43736
H     3.95687   2.39042  -0.35053
H     3.28578   2.22646   1.30873
H     2.26785   0.10305   2.02377
H     0.83430   1.04776   2.48908
H     0.67501  -0.67110   2.04515
H     2.06361  -0.80204  -1.48065
H     2.42454  -1.35686   0.24854
H     0.01782  -2.19095  -1.49025
H     0.25388  -2.58909   0.30119
H    -1.38146  -0.70486   3.04556
H    -1.42621   0.87725   2.19874
H    -2.93562  -0.02360   2.53809
H    -0.15376   1.25490  -1.07697
