23
Generated by autodE on: 2022-07-27. E = -629.252425 Ha
C     0.12612  -1.39599   3.71554
N    -0.79928  -0.78909   2.78301
C    -0.56477  -0.78439   1.44650
O     0.49892  -1.20087   0.95513
C    -1.69265  -0.34491   0.63590
O    -1.62793  -0.23201  -0.67205
C    -0.61901   0.03731  -1.47511
C    -0.87840  -0.21536  -2.91996
C     0.51942   0.80196  -0.99655
O     0.59674   1.38266   0.07878
O     1.46930   0.90098  -1.95041
C     2.58627   1.74339  -1.64897
H     0.06169  -2.49866   3.71435
H     1.15712  -1.11857   3.45478
H    -0.09361  -1.03637   4.72898
H    -1.72645  -0.53679   3.11153
H    -2.71925  -0.45128   0.98996
H    -0.26483  -1.05458  -3.29331
H    -0.63468   0.66277  -3.53803
H    -1.93589  -0.47991  -3.06150
H     3.10029   1.39615  -0.74045
H     3.25902   1.67591  -2.51212
H     2.26204   2.78491  -1.50479
