52
Generated by autodE on: 2022-06-05. E = -1334.071103 Ha. Imaginary frequency = -148.1 cm-1
C    -8.07695   2.18180   5.80883
N    -8.62237   2.46668   4.49471
C    -9.26239   1.56003   3.74314
O    -9.50876   0.40936   4.13200
C    -9.63752   2.04505   2.33793
C   -10.79426   1.24366   1.68380
C   -10.76755   1.15934   0.14825
C   -10.70967   2.49067  -0.64983
C    -9.49647   2.67387  -1.58044
C    -8.21940   3.25410  -0.85894
C    -8.50539   4.64231  -0.42555
N    -8.76696   5.71230  -0.06369
C    -7.08807   3.31968  -1.80608
N    -6.21809   3.38584  -2.56783
C    -7.97875   2.44255   0.35636
C    -8.49325   2.10428   1.41701
C    -7.59117  -0.41975   1.71984
C    -6.48362  -0.70270   2.65532
O    -5.37218  -1.08334   2.25722
N    -6.81340  -0.63059   3.96085
C    -5.87642  -0.98355   5.00486
O    -7.38816  -0.37431   0.42179
C    -6.47333   0.20476  -0.31708
C    -6.59199  -0.11319  -1.76933
C    -5.38222   1.02019   0.23131
O    -5.25704   1.43601   1.37230
O    -4.52043   1.34126  -0.75616
C    -3.53169   2.32504  -0.44224
H    -7.00500   1.93139   5.75706
H    -8.20009   3.05801   6.45994
H    -8.61461   1.33233   6.24702
H    -8.42410   3.37170   4.07769
H    -9.95074   3.09871   2.44053
H   -10.77296   0.21987   2.08408
H   -11.73823   1.69706   2.02569
H   -11.67568   0.61135  -0.14832
H    -9.92727   0.51735  -0.15492
H   -11.59755   2.55370  -1.29639
H   -10.78702   3.35851   0.02654
H    -9.19472   1.71395  -2.02420
H    -9.73554   3.36343  -2.40321
H    -8.58196  -0.81096   1.95410
H    -7.76776  -0.36188   4.20958
H    -5.65829  -2.06540   5.01752
H    -4.92177  -0.45136   4.87141
H    -6.30536  -0.70263   5.97494
H    -5.88536  -0.91509  -2.05022
H    -7.61023  -0.46669  -1.98296
H    -6.36396   0.75447  -2.39901
H    -2.94865   2.47259  -1.35883
H    -4.01082   3.26981  -0.14453
H    -2.87819   1.97721   0.37125
