23
Generated by autodE on: 2022-06-19. E = -351.521384 Ha
C     3.70144   0.77093  -0.04724
C     2.58574   0.01274   0.03150
C     2.66468  -1.47971   0.22718
C     1.26911   0.63876  -0.07191
C     0.07801  -0.00728  -0.00329
C    -1.20131   0.66421  -0.10925
C    -2.43084   0.09369  -0.04365
C    -2.67468  -1.37513   0.15673
C    -3.67368   0.92848  -0.17063
H     3.64052   1.85436  -0.18945
H     4.69887   0.32890   0.02808
H     3.70836  -1.81859   0.28955
H     2.14458  -1.78758   1.14953
H     2.17534  -2.01579  -0.60298
H     1.26609   1.72588  -0.21637
H     0.07228  -1.09106   0.14147
H    -1.15548   1.74994  -0.25758
H    -3.28166  -1.54103   1.06433
H    -3.26425  -1.78267  -0.68350
H    -1.75473  -1.96684   0.24793
H    -4.29165   0.58411  -1.01938
H    -3.44562   1.99458  -0.31619
H    -4.30749   0.82619   0.72864
