21
Generated by autodE on: 2022-06-19. E = -566.230331 Ha
C    -2.97908   1.58423  -0.49327
N    -2.20162   0.37622  -0.67859
C    -1.19478   0.05058   0.14530
O    -0.86555   0.70727   1.13535
N    -0.64631  -1.21613  -0.17217
N     0.58697  -1.44961   0.07105
C     0.97065  -2.87804   0.05378
N     1.56455  -0.65054   0.36349
C     1.55260   0.66874  -0.07276
C     2.40848   1.57518   0.75864
O     0.96813   1.03858  -1.08717
H    -2.31545   2.42904  -0.26008
H    -3.70673   1.48187   0.32944
H    -3.52475   1.80388  -1.41914
H    -2.45123  -0.28062  -1.41141
H     0.07912  -3.47563  -0.15351
H     1.73662  -3.01328  -0.71991
H     1.39263  -3.12280   1.03639
H     2.59915   2.51358   0.22243
H     1.85705   1.79644   1.68850
H     3.35229   1.08700   1.03899
