44
Generated by autodE on: 2022-06-19. E = -917.727047 Ha. Imaginary frequency = -303.4 cm-1
C     5.02736   1.76137   1.06243
C     4.24489   0.72635   0.68060
C     4.70147  -0.70179   0.83733
C     2.92888   0.98230   0.10845
C     2.05266   0.03045  -0.31145
C     0.76671   0.33856  -0.88042
N    -0.54991   0.40070   1.16056
C    -1.36114   1.47731   0.74515
O    -2.54268   1.39519   0.39675
N    -0.71045   2.65768   0.87769
C    -1.27883   3.89031   0.37507
N    -1.00990  -0.80368   0.96692
C    -0.30062  -1.85072   1.71781
N    -1.48310  -1.09936  -0.22876
C    -2.51820  -1.95419  -0.45186
C    -3.52722  -2.09327   0.67058
O    -2.67892  -2.51108  -1.54248
C    -0.03704  -0.56688  -1.61768
C    -0.96941   0.05038  -2.63422
C     0.48976  -1.94342  -1.95624
H     4.69112   2.79641   0.94780
H     6.01716   1.59873   1.49776
H     4.00806  -1.27242   1.47713
H     5.70454  -0.75231   1.28364
H     4.72891  -1.21906  -0.13605
H     2.63607   2.03558   0.02112
H     2.33107  -1.02276  -0.22724
H     0.54494   1.39858  -1.01367
H     0.28591   2.61662   1.06870
H    -2.31031   4.01025   0.73537
H    -0.67980   4.73546   0.73724
H    -1.29795   3.92031  -0.72884
H     0.72641  -1.93225   1.33114
H    -0.27801  -1.57028   2.77699
H    -0.81615  -2.80818   1.58495
H    -3.83359  -1.09651   1.02042
H    -3.09283  -2.63109   1.52742
H    -4.39631  -2.65059   0.29880
H    -0.39546   0.31354  -3.54004
H    -1.43054   0.96781  -2.24206
H    -1.76277  -0.64820  -2.92723
H     1.22184  -1.85981  -2.77867
H    -0.32491  -2.59775  -2.29029
H     0.99116  -2.42294  -1.10543
