32
Generated by autodE on: 2022-06-17. E = -859.498257 Ha
C     4.19361  -0.59135   0.57825
O     2.85963  -0.05399   0.60061
C     1.96619  -0.64210  -0.18671
O     2.20695  -1.58214  -0.91560
C     0.59879  -0.02631  -0.07271
N     0.45698   1.19142   0.72978
C    -0.92978   1.41648   0.41280
C    -1.50832   2.74275   0.80446
O    -0.96722   1.29759  -1.09255
C    -0.01178   0.41248  -1.41578
O     0.24310   0.06909  -2.54349
C    -1.57210   0.12240   0.94101
C    -2.96646  -0.18356   0.46954
O    -3.65810   0.55065  -0.20510
C    -0.48865  -0.97592   0.59669
C    -0.98070  -2.06832  -0.35517
C     0.08633  -1.60693   1.86566
H     4.77223   0.01360   1.28504
H     4.61836  -0.51252  -0.43237
H     4.18339  -1.64439   0.89295
H     1.04539   1.94553   0.36655
H    -2.54499   2.82122   0.45479
H    -0.91484   3.55810   0.36528
H    -1.49295   2.83698   1.89935
H    -1.65547   0.20224   2.03759
H    -3.36472  -1.16031   0.82939
H    -1.52400  -1.66474  -1.22267
H    -1.65672  -2.75421   0.17493
H    -0.12841  -2.65196  -0.73017
H     0.54555  -0.85054   2.51626
H    -0.71979  -2.10443   2.42592
H     0.84228  -2.36774   1.61636
