18
Generated by autodE on: 2022-06-17. E = -588.797736 Ha
C     3.38589   1.34488  -0.11152
O     1.96806   1.17948  -0.01272
C     1.49666  -0.08483  -0.12705
O     2.22370  -1.05499  -0.30196
C     0.06734  -0.13258  -0.01904
N    -0.75975   0.98404   0.17541
C    -2.01538   0.61714   0.22982
C    -3.20100   1.46864   0.42250
O    -2.11190  -0.69599   0.08460
C    -0.77220  -1.26068  -0.08545
O    -0.65212  -2.45982  -0.23569
H     3.75238   1.00085  -1.09017
H     3.90137   0.78592   0.68358
H     3.57482   2.41900   0.00281
H    -0.43096   1.94499   0.26057
H    -3.88856   1.34513  -0.42886
H    -2.90229   2.52082   0.50783
H    -3.73484   1.15897   1.33492
