32
Generated by autodE on: 2022-06-17. E = -859.457039 Ha. Imaginary frequency = -507.5 cm-1
C     4.11977  -0.73896   0.78226
O     2.88461  -0.03509   0.58927
C     2.09322  -0.46726  -0.40194
O     2.37748  -1.38846  -1.15009
C     0.82745   0.24813  -0.43361
N     0.51915   1.35139   0.35717
C    -0.81205   1.58231   0.13697
C    -1.51061   2.78675   0.65285
O    -1.04657   1.23443  -1.18692
C    -0.06445   0.31487  -1.56875
O    -0.10924  -0.25154  -2.63797
C    -1.56619  -0.06544   1.04049
C    -2.94081  -0.06818   0.53505
O    -3.86788   0.50845   1.09180
C    -0.64839  -1.11847   0.69836
C    -0.97245  -2.19493  -0.30117
C     0.30233  -1.54386   1.78738
H     4.61860  -0.24616   1.62441
H     4.74444  -0.67542  -0.12012
H     3.92612  -1.79500   1.01997
H     0.90330   1.44192   1.29635
H    -2.59875   2.64969   0.61687
H    -1.24062   3.66073   0.03950
H    -1.20595   2.96642   1.69279
H    -1.49346   0.31864   2.06395
H    -3.11933  -0.60411  -0.42283
H    -1.61180  -1.86170  -1.12695
H    -1.48951  -3.02208   0.21742
H    -0.04520  -2.60708  -0.72658
H     0.73615  -0.68564   2.32127
H    -0.26395  -2.13468   2.53014
H     1.10903  -2.18668   1.40684
