20
Generated by autodE on: 2022-06-21. E = -457.715308 Ha
C    -3.11876   0.52239   0.30632
N    -1.82149  -0.11112   0.13698
C    -1.75538  -1.47021  -0.19456
C    -0.59491  -2.10299  -0.42898
C     0.74767  -1.41809  -0.35617
C     0.57459   0.05548  -0.02369
C     1.73128   0.95932   0.08481
N     2.94965   0.39923  -0.12227
O     1.63158   2.17496   0.34967
C    -0.65817   0.59565   0.19230
H    -3.71945  -0.01621   1.05583
H    -3.68409   0.54236  -0.64063
H    -2.97617   1.55441   0.65045
H    -2.72035  -1.97760  -0.24724
H    -0.62420  -3.16606  -0.67873
H     1.29238  -1.54684  -1.31385
H     1.39057  -1.92146   0.39539
H     3.07368  -0.58056  -0.34231
H     3.77163   0.98975  -0.05921
H    -0.75391   1.65627   0.42988
