24
Generated by autodE on: 2022-06-21. E = -593.108455 Ha
C     3.97508   1.59287  -0.08415
N     2.77966   0.83710   0.21716
C     2.64859   0.16174   1.39668
O     3.60031   0.07448   2.20704
C     1.38481  -0.46025   1.67926
O     0.39991  -0.32437   0.79699
C    -0.81093  -0.77932   0.83912
C    -1.70891  -0.49553  -0.23905
C    -1.32474   0.26962  -1.36798
C    -2.23738   0.51802  -2.38778
C    -3.54514   0.01640  -2.31239
C    -3.93476  -0.74126  -1.20112
C    -3.03055  -0.99717  -0.17330
H     3.91610   1.95764  -1.11778
H     4.10641   2.46329   0.58396
H     4.87340   0.96407   0.01162
H     1.95421   0.98279  -0.35325
H     1.19940  -1.02767   2.59231
H    -1.10582  -1.36990   1.71263
H    -0.30788   0.66212  -1.43227
H    -1.93046   1.10937  -3.25372
H    -4.25592   0.21607  -3.11730
H    -4.95203  -1.13439  -1.13683
H    -3.33466  -1.58790   0.69419
