44
Generated by autodE on: 2022-06-21. E = -1050.833755 Ha. Imaginary frequency = -246.7 cm-1
C    -1.01129   4.85579  -0.02577
N    -0.45156   3.53825   0.18466
C    -1.20841   2.50748   0.64114
O    -2.43763   2.63089   0.84047
C    -0.55962   1.22522   0.81941
O     0.76037   1.17356   0.68196
C     1.44467   0.05053   0.71069
C     2.83689   0.09184   0.36267
C     3.64160  -1.05226   0.57417
C     4.98806  -1.04853   0.21735
C     5.56666   0.09085  -0.35626
C     4.77895   1.23032  -0.57106
C     3.43120   1.23669  -0.22172
C    -0.01366  -0.89249  -1.26271
C    -0.99696   0.06156  -1.25961
C    -2.44479  -0.27986  -0.98633
C    -2.54873  -1.62975  -0.30488
C    -3.80026  -2.09375   0.31445
N    -4.85626  -1.24464   0.24375
O    -3.91698  -3.20206   0.87634
C    -1.48868  -2.48638  -0.29306
N    -0.27145  -2.20655  -0.84265
C     0.83898  -3.12412  -0.63994
H    -1.88070   4.81331  -0.70017
H    -1.34346   5.32255   0.91777
H    -0.24717   5.49850  -0.48072
H     0.55066   3.40632   0.10484
H    -1.06073   0.42504   1.36381
H     0.99345  -0.80109   1.22257
H     3.19593  -1.94189   1.02406
H     5.59421  -1.94111   0.39038
H     6.62261   0.09127  -0.63547
H     5.22282   2.12247  -1.01977
H     2.82304   2.12563  -0.39998
H     0.95238  -0.73694  -1.73796
H    -0.78198   1.00572  -1.76037
H    -2.90427   0.51331  -0.37212
H    -3.01664  -0.27684  -1.93802
H    -4.79403  -0.32814  -0.18050
H    -5.72781  -1.51789   0.68417
H    -1.58762  -3.47132   0.16623
H     0.49337  -4.15902  -0.76776
H     1.62338  -2.92273  -1.38162
H     1.27705  -3.02207   0.36675
