28
Generated by autodE on: 2022-06-16. E = -628.834627 Ha
C     3.10258   0.47176   0.43320
C     2.06257  -0.51824  -0.03681
O     2.37443  -1.61814  -0.50975
N     0.76714  -0.14750   0.11566
N     0.42224   1.10881   0.69388
N    -0.70291   1.55412  -0.04216
C    -0.27177   2.25898  -1.24685
C    -1.48164   0.33725  -0.29442
C    -2.48179   0.08603   0.81530
O    -2.46421   0.63973   1.89373
C    -0.43316  -0.84752  -0.41551
C    -0.27866  -1.26402  -1.88115
C    -0.75791  -2.06624   0.45542
H     2.96304   1.44599  -0.05706
H     3.02497   0.63831   1.51805
H     4.09442   0.06652   0.19625
H     0.08282   0.91866   1.64101
H    -1.15571   2.51728  -1.84566
H     0.41952   1.67150  -1.87801
H     0.23400   3.18939  -0.95354
H    -2.05475   0.42364  -1.22732
H    -3.26249  -0.67188   0.57446
H    -1.24323  -1.64759  -2.24515
H     0.01308  -0.41158  -2.51056
H     0.47421  -2.05363  -1.98872
H    -1.69048  -2.54765   0.12605
H    -0.85894  -1.78951   1.51542
H     0.05648  -2.79951   0.37007
