14
Generated by autodE on: 2022-06-16. E = -270.687343 Ha
C    -2.03969  -1.13004   0.34511
C    -0.96999  -0.12350   0.04797
C    -1.47540   1.23843  -0.32381
C     0.34048  -0.47521   0.12621
C     1.47187   0.39845  -0.13074
O     2.64186   0.03245  -0.04818
H    -2.70810  -1.24136  -0.52618
H    -1.62765  -2.11397   0.60816
H    -2.67447  -0.77332   1.17476
H    -0.68947   1.97148  -0.53814
H    -2.13042   1.15722  -1.20787
H    -2.10794   1.62961   0.49111
H     0.60475  -1.50056   0.40622
H     1.24664   1.45077  -0.41474
