14
Generated by autodE on: 2022-06-16. E = -358.127515 Ha
C    -2.70915  -0.24773   0.07359
N    -1.86223   0.28317  -0.96945
N    -0.63530   0.26127  -0.70138
N    -0.06496  -0.18046   0.39440
C     1.31495  -0.03622   0.31802
C     2.03710  -0.52255   1.54009
O     1.89697   0.44304  -0.65898
H    -3.75138  -0.18135  -0.25712
H    -2.57908   0.31430   1.01398
H    -2.45404  -1.29805   0.29464
H     0.01022   0.63472  -1.42698
H     3.11705  -0.36257   1.43287
H     1.66389   0.00661   2.43099
H     1.83038  -1.59409   1.69137
