12
Generated by autodE on: 2022-06-17. E = -157.299005 Ha
C    -1.56873  -0.54864   0.24723
C    -0.68970   0.53272  -0.30646
C     0.65174   0.58525  -0.29376
C     1.60181  -0.42543   0.27580
H    -2.25343  -0.14334   1.01316
H    -2.21205  -0.97384  -0.54333
H    -1.00181  -1.37335   0.70240
H    -1.22109   1.37232  -0.77245
H     1.12467   1.46373  -0.75101
H     2.28355  -0.80630  -0.50521
H     2.24630   0.03314   1.04652
H     1.09197  -1.28714   0.72979
