32
Generated by autodE on: 2022-06-17. E = -760.438947 Ha. Imaginary frequency = -408.0 cm-1
C     3.68083  -0.67010  -0.66451
N     3.16378  -0.97783   0.65580
C     1.94618  -0.65956   1.13686
O     1.55441  -0.98609   2.26523
N     1.15145   0.09004   0.23995
N     0.04707   0.53056   0.83213
C    -0.89484   1.03718  -0.00653
C    -0.45292   1.96191  -1.00811
N    -0.12125   2.71144  -1.83378
C    -2.27451   1.14978   0.54682
C    -3.28349   1.90673  -0.26060
O    -2.53291   0.59697   1.60718
C    -0.99791  -0.70552  -1.35241
C    -2.15227  -1.49796  -0.80387
C     0.32819  -1.19588  -1.22586
C     0.57286  -2.55343  -0.62679
H     4.77618  -0.60348  -0.61276
H     3.41678  -1.44267  -1.40600
H     3.28425   0.29244  -1.00759
H     3.69539  -1.61615   1.24092
H    -0.31407   0.00168   1.63865
H    -4.28691   1.74684   0.15275
H    -3.24874   1.59814  -1.31671
H    -3.03823   2.98173  -0.22952
H    -1.20501  -0.09342  -2.23343
H    -2.04402  -1.68560   0.27630
H    -2.20713  -2.48690  -1.29331
H    -3.11257  -0.99091  -0.97092
H     1.04160  -0.86025  -1.98009
H     0.14466  -2.63848   0.38382
H     0.09070  -3.33088  -1.24578
H     1.64266  -2.79125  -0.57056
