31
Generated by autodE on: 2022-06-04. E = -709.916623 Ha
C     4.70537   0.10547   0.29420
C     3.41580  -0.63567   0.58623
O     3.45751  -1.73369   1.16150
C     2.24189   0.08354   0.12383
N     0.94492  -0.26494   0.21377
C     0.58956  -1.54583   0.87561
C    -0.10045   0.47537  -0.26092
C     0.06482   1.75258  -0.93463
C    -1.20002   2.44047  -1.40626
O     1.16181   2.30211  -1.14182
C    -1.48369  -0.05640  -0.07687
C    -2.06753  -0.87975  -1.05287
C    -3.37265  -1.35286  -0.89501
C    -4.11137  -1.00534   0.24048
C    -3.54064  -0.18204   1.21622
C    -2.23530   0.29027   1.05734
H     5.55918  -0.48215   0.65589
H     4.81145   0.28435  -0.78814
H     4.70195   1.09239   0.78501
H     2.41325   1.03454  -0.36747
H    -0.06716  -1.33541   1.72663
H     1.50651  -2.03213   1.20711
H     0.05315  -2.17880   0.16041
H    -1.87132   2.65804  -0.56162
H    -0.92308   3.37811  -1.90571
H    -1.76347   1.80296  -2.10427
H    -1.49021  -1.14742  -1.94103
H    -3.81461  -1.99328  -1.66195
H    -5.13249  -1.37399   0.36367
H    -4.11410   0.09509   2.10393
H    -1.78866   0.93607   1.81709
