31
Generated by autodE on: 2022-07-27. E = -709.921845 Ha
C    -4.30466  -0.93424   0.18005
C    -2.84937  -0.59740  -0.06429
O    -2.56319   0.38061  -0.78670
C    -1.89151  -1.41241   0.61068
N    -0.57374  -1.07471   0.73851
C     0.06490  -1.51407   1.99909
C     0.11830  -0.35689  -0.16073
C    -0.21149  -0.38668  -1.60626
C    -0.85160  -1.60609  -2.22745
O     0.18973   0.51830  -2.33633
C     1.26835   0.45946   0.27100
C     1.16265   1.30238   1.39443
C     2.24340   2.08576   1.80102
C     3.44785   2.04378   1.09208
C     3.56283   1.21586  -0.03057
C     2.48397   0.43387  -0.44094
H    -4.77485  -1.19152  -0.78371
H    -4.82173  -0.03910   0.56171
H    -4.44759  -1.76646   0.88201
H    -2.23242  -2.19810   1.28132
H    -0.27101  -2.54019   2.19656
H    -0.24803  -0.87046   2.83058
H     1.15342  -1.49798   1.89375
H    -1.81138  -1.31712  -2.68082
H    -0.18453  -1.93086  -3.04103
H    -1.02334  -2.43670  -1.53290
H     0.21991   1.35741   1.94169
H     2.14101   2.73834   2.67115
H     4.29391   2.65736   1.41021
H     4.50139   1.17705  -0.58827
H     2.58577  -0.21406  -1.31280
