19
Generated by autodE on: 2022-06-04. E = -457.432002 Ha
N     1.73866   2.69125  -0.41223
C     1.08199   1.77707  -0.11355
C     0.26914   0.68424   0.27535
C     0.46792  -0.62998  -0.02276
C     1.52988  -1.17898  -0.78259
N     2.39673  -1.65633  -1.39649
C    -0.75935  -1.39061   0.45828
C    -1.90614  -0.97451  -0.52113
C    -2.13278   0.52399  -0.18029
C    -1.08885   0.79076   0.95393
C    -1.11849  -0.55631   1.70528
H    -0.61753  -2.46997   0.57777
H    -2.79957  -1.57741  -0.30514
H    -1.62593  -1.14355  -1.56968
H    -3.14392   0.70030   0.21324
H    -1.97936   1.19234  -1.03837
H    -1.24920   1.70989   1.52739
H    -0.36456  -0.62367   2.50242
H    -2.11351  -0.79764   2.10565
