50
Generated by autodE on: 2022-06-04. E = -1167.329219 Ha. Imaginary frequency = -216.6 cm-1
C    -3.63251  -2.25110  -0.21852
C    -2.15310  -2.13697  -0.51029
O    -1.70673  -2.46963  -1.61337
C    -1.34708  -1.66436   0.59487
N     0.03783  -1.61168   0.67351
C     0.58579  -2.21768   1.90848
C     0.81379  -0.91585  -0.19517
C     0.50718  -1.11862  -1.69622
C     1.07393  -2.40587  -2.24698
O    -0.03933  -0.29068  -2.38980
C     2.17279  -0.43596   0.10409
C     2.59637  -0.10664   1.41468
C     3.84586   0.46253   1.64596
C     4.71076   0.74092   0.58281
C     4.29559   0.46470  -0.72153
C     3.04606  -0.10530  -0.95933
C    -0.39588   1.20917   0.20373
C     0.26820   1.87158  -0.85982
N     0.89359   2.51638  -1.60486
C    -0.19000   1.81695   1.60069
C    -1.02876   3.13332   1.58174
C    -2.49456   2.60948   1.52838
C    -2.31643   1.06046   1.56479
C    -1.08891   0.93520   2.48028
C    -1.70913   0.68563   0.20726
C    -2.51945   0.65653  -0.96170
N    -3.21726   0.64084  -1.89433
H    -4.19796  -2.05827  -1.14016
H    -3.96314  -1.56940   0.57732
H    -3.84429  -3.28449   0.10597
H    -1.80197  -1.83377   1.57258
H     0.05412  -3.16167   2.07299
H     0.44924  -1.57603   2.78854
H     1.64878  -2.43437   1.76900
H     0.66718  -2.57632  -3.25181
H     2.17081  -2.32989  -2.30720
H     0.83786  -3.25042  -1.58826
H     1.93700  -0.25207   2.26432
H     4.13891   0.70419   2.66999
H     5.69021   1.18675   0.76913
H     4.94430   0.70012  -1.56791
H     2.75398  -0.27366  -1.99449
H     0.85768   1.94338   1.89553
H    -0.76765   3.77735   0.73046
H    -0.83821   3.70060   2.50461
H    -3.03672   2.93676   0.62958
H    -3.07170   2.93447   2.40619
H    -3.21523   0.49419   1.83355
H    -0.73376  -0.08779   2.61437
H    -1.26208   1.38296   3.46919
