51
Generated by autodE on: 2022-10-23. E = -1354.781111 Ha
C    -4.50431  -2.03000   1.02971
O    -3.16913  -1.51231   0.90399
C    -2.81385  -0.88133  -0.20681
O    -3.55443  -0.64168  -1.13714
C    -1.32831  -0.44360  -0.19027
C    -1.32361   1.03210   0.17715
C    -1.67010   1.98749  -0.78864
C    -1.71151   3.34249  -0.45633
C    -1.40557   3.75754   0.84320
C    -1.06793   2.80776   1.81077
C    -1.03805   1.44953   1.48421
N    -0.58207  -1.26161   0.78051
N    -0.30622  -2.47555   0.08601
C    -0.90762  -3.56228   0.56187
N    -1.37772  -4.53561   0.98184
C    -0.21914  -2.25618  -1.37827
C     1.23555  -2.15263  -1.94106
O     1.06091  -1.16068  -2.95251
C     0.58935  -0.11255  -2.07748
C     1.65967  -0.09033  -0.98657
C     2.03056   1.06599  -0.17287
C     1.73902   2.37534  -0.60820
C     2.06269   3.48176   0.17623
C     2.68429   3.31289   1.41788
C     2.98294   2.02098   1.86302
C     2.66344   0.91096   1.08037
C     2.05248  -1.38973  -0.90220
O     2.87346  -1.93554   0.00486
C     3.18691  -3.32597  -0.11467
C    -0.72420  -0.80513  -1.57084
H    -4.99326  -1.51004   1.86485
H    -4.41358  -3.10090   1.25614
H    -5.07109  -1.87858   0.10357
H    -1.90940   1.67316  -1.80541
H    -1.97695   4.07762  -1.21939
H    -1.42767   4.81900   1.10006
H    -0.82701   3.12203   2.82863
H    -0.78838   0.71722   2.25219
H     0.31651  -0.81586   0.96929
H    -0.80642  -3.01476  -1.90787
H     1.65097  -3.07960  -2.34589
H     0.42418   0.81284  -2.63557
H     1.24359   2.53032  -1.56681
H     1.81704   4.48448  -0.18116
H     2.92992   4.18044   2.03468
H     3.46468   1.87419   2.83297
H     2.89279  -0.09044   1.44339
H     3.85609  -3.56146   0.72182
H     2.27688  -3.94144  -0.03749
H     3.70107  -3.53512  -1.06539
H    -1.47786  -0.73509  -2.36048
