24
Generated by autodE on: 2022-10-26. E = -701.444216 Ha
C    -2.79529  -1.83597   0.15485
O    -1.64121  -1.01229   0.40363
C    -0.66699  -1.07189  -0.49433
O    -0.67723  -1.76643  -1.48884
C     0.44816  -0.12334  -0.17451
N     1.69766  -0.52978  -0.28424
N     2.25820  -1.73411  -0.39699
C     1.53368  -2.79641  -0.13601
N     1.01441  -3.82173   0.11535
C     0.16931   1.27811   0.14505
C    -1.00352   1.89261  -0.34147
C    -1.25779   3.23498  -0.07069
C    -0.35350   3.98555   0.68907
C     0.80673   3.38264   1.18483
C     1.06659   2.03808   0.92330
H    -3.26930  -1.54622  -0.79357
H    -3.47580  -1.65849   0.99455
H    -2.49859  -2.89333   0.11417
H     2.40910   0.20785  -0.27358
H    -1.71085   1.32434  -0.94794
H    -2.16597   3.70028  -0.45956
H    -0.55796   5.03715   0.90179
H     1.50695   3.95764   1.79445
H     1.95436   1.57163   1.35597
