24
Generated by autodE on: 2022-10-23. E = -701.448728 Ha
C     1.85015  -2.97532   1.89081
O     1.23037  -1.93757   1.11261
C     0.33562  -1.18084   1.73085
O    -0.00212  -1.31583   2.89512
C    -0.24395  -0.13562   0.84266
N    -1.16958   0.57294   1.45841
N    -1.89420   1.62629   1.13816
C    -1.64756   2.29270   0.02883
N    -1.56531   3.02458  -0.88640
C     0.12414   0.02627  -0.57054
C    -0.86187  -0.08203  -1.56789
C    -0.51286   0.05024  -2.91209
C     0.81532   0.29674  -3.27111
C     1.80069   0.40015  -2.28236
C     1.46160   0.25795  -0.93775
H     2.37928  -2.54049   2.75050
H     1.09147  -3.68733   2.24525
H     2.55672  -3.47185   1.21682
H    -1.35961   0.24047   2.41550
H    -1.89855  -0.27764  -1.28684
H    -1.28277  -0.03809  -3.68161
H     1.08527   0.40552  -4.32405
H     2.83898   0.59261  -2.56126
H     2.22690   0.33658  -0.16395
