27
Generated by autodE on: 2022-10-23. E = -653.259905 Ha
C    -1.84585   2.97015   0.83790
O    -0.78774   2.05665   0.53695
C    -1.10719   0.83721   0.08292
C    -0.26709  -0.16176  -0.28881
C     1.18289  -0.25053  -0.29307
C     1.99894   0.89304  -0.11971
C     3.38877   0.78806  -0.11821
C     4.01095  -0.45547  -0.28615
C     3.21955  -1.59554  -0.45702
C     1.82701  -1.49711  -0.46216
C    -1.23861  -1.34551  -0.53580
C    -1.81448  -1.78114   0.83145
C    -2.62237  -0.78215   1.19962
C    -2.53574   0.23649   0.03809
O    -2.37865  -0.64674  -1.08052
H    -1.36513   3.88433   1.20738
H    -2.50767   2.56632   1.61979
H    -2.43281   3.20501  -0.06376
H     1.52975   1.86812   0.01111
H     3.99488   1.68795   0.01517
H     5.10062  -0.53350  -0.28375
H     3.68981  -2.57360  -0.58723
H     1.23125  -2.40248  -0.59287
H    -0.89145  -2.13626  -1.20865
H    -1.53736  -2.68701   1.36995
H    -3.18700  -0.63680   2.11979
H    -3.37287   0.92909  -0.09113
