51
Generated by autodE on: 2022-10-23. E = -1354.698076 Ha. Imaginary frequency = -334.7 cm-1
C    -4.16789  -2.23413   1.49185
O    -2.88437  -1.58981   1.40574
C    -2.53025  -1.11530   0.21496
O    -3.25236  -1.09436  -0.75571
C    -1.13417  -0.51435   0.30729
C    -1.15270   0.95323   0.54942
C    -1.78706   1.81095  -0.36576
C    -1.82111   3.18556  -0.13046
C    -1.23729   3.71930   1.02215
C    -0.62013   2.86879   1.94381
C    -0.58121   1.49427   1.71501
N    -0.17541  -1.23783   0.92177
N     0.09315  -2.52639   0.66014
C    -0.87451  -3.41889   0.64481
N    -1.61198  -4.33272   0.59492
C    -0.05024  -2.21534  -1.75503
C     1.42715  -2.11847  -2.17075
O     1.34436  -1.06028  -3.14542
C     0.73698  -0.10031  -2.23842
C     1.77184  -0.08850  -1.10141
C     2.14647   1.06470  -0.29289
C     1.76426   2.36825  -0.67632
C     2.12158   3.47648   0.08948
C     2.86453   3.31881   1.26421
C     3.24763   2.03361   1.66169
C     2.89852   0.92086   0.89604
C     2.17718  -1.38533  -1.04816
O     2.99178  -1.95018  -0.15126
C     3.28785  -3.34235  -0.28467
C    -0.51590  -0.91609  -1.80089
H    -4.96493  -1.53376   1.20701
H    -4.27890  -2.53913   2.53808
H    -4.18436  -3.11304   0.83236
H    -2.24565   1.40380  -1.26688
H    -2.30635   3.84323  -0.85487
H    -1.26457   4.79605   1.20294
H    -0.16684   3.27550   2.84983
H    -0.11778   0.84103   2.45546
H     0.66686  -0.72603   1.18644
H    -0.63387  -3.13245  -1.78684
H     1.88125  -3.02639  -2.57682
H     0.53100   0.84806  -2.74168
H     1.17117   2.51588  -1.57930
H     1.80532   4.47283  -0.22793
H     3.13649   4.18822   1.86706
H     3.82378   1.89384   2.57988
H     3.20403  -0.07413   1.21854
H     3.92101  -3.60351   0.57211
H     2.36573  -3.94144  -0.25305
H     3.83633  -3.54147  -1.21832
H    -1.52972  -0.63772  -2.07854
