37
Generated by autodE on: 2022-06-17. E = -876.080260 Ha
C     2.04746   0.66177  -2.03448
C     1.92225   1.10321  -0.61249
O     2.34838   2.16542  -0.20017
C     1.20653   0.14287   0.37498
C     1.66999   0.46579   1.74582
N     2.03340   0.62389   2.83713
C    -0.36914   0.38562   0.30652
N    -0.75745   1.48291  -0.54756
C    -0.90018   2.77446   0.10429
C    -1.40698   1.24202  -1.74272
C    -1.61987   0.01709  -2.26705
C    -1.14647  -1.22129  -1.56894
C    -0.95397  -1.01925  -0.04509
C    -2.27357  -1.22140   0.70710
N    -3.31074  -0.48043   0.27462
O    -2.37018  -2.00149   1.65927
C     0.14671  -1.94476   0.47544
N     1.36764  -1.26321   0.06257
C     2.61421  -1.88985   0.45772
H     2.47624   1.47704  -2.63110
H     1.07024   0.36464  -2.44132
H     2.70039  -0.22370  -2.08395
H    -0.68931   0.62916   1.32910
H    -1.76265   2.79466   0.79672
H    -1.04066   3.55656  -0.65439
H     0.00891   3.01248   0.67570
H    -1.74404   2.14586  -2.25631
H    -2.11680  -0.06513  -3.23488
H    -1.84516  -2.05780  -1.73055
H    -0.17838  -1.54840  -1.98406
H    -4.21949  -0.60985   0.70931
H    -3.23961   0.07452  -0.57532
H     0.07843  -2.05501   1.57410
H     0.09730  -2.94858   0.02879
H     3.46799  -1.31220   0.07262
H     2.66374  -2.90115   0.02771
H     2.72521  -1.97970   1.55748
