39
Generated by autodE on: 2022-06-10. E = -1179.743385 Ha
C     2.84786  -2.96138  -0.24289
O     1.97367  -1.82189  -0.26079
C     0.66528  -2.05581  -0.20204
O     0.16401  -3.16026  -0.14457
C    -0.10808  -0.79306  -0.23646
C    -1.44578  -0.69890  -0.35829
C    -2.35465  -1.78379  -0.49791
N    -3.15562  -2.61746  -0.62174
C    -1.89489   0.75917  -0.34196
C    -2.86659   1.09702  -1.47579
C    -2.52246   1.04283   1.06368
C    -3.94756   0.65196   1.31032
O    -1.83801   1.58488   1.90984
N    -0.61798   1.46578  -0.49300
C     0.49747   0.58896  -0.12002
C     1.68317   0.77944  -1.08894
O     2.76194   1.22276  -0.76501
O     1.35503   0.40097  -2.31618
C     2.38096   0.48939  -3.31963
C     0.99406   0.81765   1.32170
O     1.15842  -0.07218   2.12723
O     1.18428   2.10537   1.56537
C     1.54085   2.46742   2.91040
H     3.86459  -2.55821  -0.30207
H     2.71056  -3.52655   0.68966
H     2.63957  -3.61107  -1.10454
H    -2.37326   0.90422  -2.43830
H    -3.14207   2.16083  -1.42506
H    -3.78394   0.49496  -1.41988
H    -4.60566   1.34311   0.75819
H    -4.16852   0.72142   2.38296
H    -4.16131  -0.36061   0.93741
H    -0.60237   2.31555   0.06796
H     3.23426  -0.14526  -3.04088
H     2.71425   1.53051  -3.43315
H     1.92420   0.13052  -4.24851
H     1.66808   3.55547   2.90537
H     2.47716   1.97227   3.20293
H     0.73467   2.17824   3.59945
