28
Generated by autodE on: 2022-06-10. E = -782.030606 Ha
C    -2.68607  -2.29204   1.68102
O    -2.02316  -1.06414   1.35660
C    -1.00097  -1.14792   0.49171
O    -0.58535  -2.21776   0.06595
C    -0.46045   0.15109   0.08880
N     0.82919   0.26545  -0.32740
C     1.94349  -0.40313  -0.10529
C     2.05557  -1.50539   0.87971
C     3.09296   0.15502  -0.86902
C     4.44118  -0.47906  -0.70394
O     2.91137   1.12133  -1.61016
C    -1.23905   1.35075  -0.20572
O    -0.73655   2.35172  -0.71254
O    -2.54220   1.26485   0.08529
C    -3.34185   2.41543  -0.21253
H    -3.50974  -2.02154   2.35213
H    -3.07980  -2.77374   0.77385
H    -1.99689  -2.98321   2.18796
H     0.99054   1.10576  -0.91258
H     1.66101  -2.45453   0.48246
H     3.09950  -1.65309   1.17888
H     1.45768  -1.26893   1.77567
H     5.15390  -0.00771  -1.39187
H     4.79478  -0.35606   0.33293
H     4.38656  -1.56169  -0.89976
H    -4.36069   2.16230   0.10342
H    -2.98137   3.29412   0.34218
H    -3.32350   2.63379  -1.29037
