28
Generated by autodE on: 2022-07-26. E = -782.030671 Ha
C     2.55775  -0.09644  -2.95582
O     2.04776  -0.38752  -1.64905
C     0.88147   0.18773  -1.31952
O     0.22895   0.85425  -2.11270
C     0.48789  -0.03099   0.07263
N    -0.82274   0.02089   0.43436
C    -1.96544  -0.20489  -0.18267
C    -2.05832  -0.75994  -1.55404
C    -3.13874   0.04923   0.69800
C    -4.51324  -0.19468   0.15159
O    -2.95357   0.44560   1.84872
C     1.37614  -0.01565   1.23150
O     0.94961  -0.01651   2.38449
O     2.68258   0.03070   0.94556
C     3.57908   0.07092   2.06232
H     3.52283  -0.61210  -3.02427
H     2.69733   0.98673  -3.08763
H     1.87364  -0.47056  -3.73156
H    -0.95693   0.23187   1.43994
H    -1.90450   0.01353  -2.32378
H    -3.03478  -1.23054  -1.71641
H    -1.26909  -1.51496  -1.70648
H    -5.26127   0.12739   0.88654
H    -4.65658   0.34739  -0.79642
H    -4.65045  -1.26701  -0.06512
H     3.45322  -0.81992   2.69490
H     4.58875   0.09064   1.63557
H     3.40650   0.97316   2.66725
