39
Generated by autodE on: 2022-06-10. E = -1179.655856 Ha. Imaginary frequency = -237.7 cm-1
C     3.03338  -2.86294  -1.14381
O     1.68373  -2.38239  -1.01239
C     1.38438  -1.76463   0.12667
O     2.13619  -1.65247   1.07373
C     0.02031  -1.22762   0.10756
C    -1.20104  -1.50906   0.12842
C    -2.37948  -2.20017   0.13216
N    -3.40378  -2.76987   0.12463
C    -2.10909   0.80002  -0.19253
C    -2.23710   0.59191  -1.66327
C    -3.32120   0.90950   0.70077
C    -4.65929   0.56144   0.13461
O    -3.16244   1.25424   1.86537
N    -1.00923   1.21280   0.42876
C     0.29320   0.94755   0.13110
C     0.80966   1.24309  -1.24367
O     0.34202   2.10199  -1.96404
O     1.83843   0.47065  -1.56775
C     2.44194   0.67317  -2.85382
C     1.17506   1.16340   1.31672
O     0.72641   1.24779   2.44673
O     2.46134   1.24615   1.00957
C     3.38561   1.31312   2.10729
H     3.74363  -2.03554  -1.00519
H     3.23319  -3.64955  -0.40259
H     3.10842  -3.26712  -2.15931
H    -3.08510  -0.06886  -1.87860
H    -1.34000   0.15402  -2.11131
H    -2.42504   1.56254  -2.15494
H    -4.66899  -0.49997  -0.16608
H    -4.86664   1.15667  -0.76830
H    -5.43374   0.73573   0.89151
H    -1.17259   1.36478   1.43799
H     3.24221  -0.07163  -2.92779
H     2.85466   1.68945  -2.92558
H     1.69970   0.51807  -3.64943
H     3.28196   0.41956   2.73848
H     4.38306   1.34776   1.65551
H     3.20384   2.21614   2.70655
