23
Generated by autodE on: 2022-06-22. E = -589.047686 Ha
C     1.96139   0.22482   0.32640
N     0.75091  -0.61140   0.38399
C    -0.39858  -0.22738  -0.12138
C    -0.77421   1.05925  -0.67659
C    -0.21994   2.30698  -0.31108
C    -0.69318   3.48204  -0.89244
C    -1.72039   3.44361  -1.84148
C    -2.29584   2.21753  -2.19355
C    -1.83873   1.04034  -1.60823
C     0.90530  -1.87143   1.00689
C     2.16173  -2.31138   1.44732
N     3.19043  -2.71603   1.83739
C    -0.21289  -2.69420   1.20754
N    -1.14814  -3.37932   1.37674
H     2.82826  -0.42654   0.17252
H     2.08446   0.77365   1.26941
H     1.88618   0.91934  -0.51359
H    -1.17648  -0.99502  -0.12848
H     0.55109   2.37196   0.45462
H    -0.26091   4.43936  -0.59329
H    -2.08205   4.36933  -2.29461
H    -3.10896   2.18094  -2.92176
H    -2.29519   0.08388  -1.87327
