23
Generated by autodE on: 2022-07-27. E = -589.048289 Ha
C    -1.92779   1.28824   2.12039
N    -1.10301   0.62997   1.09043
C    -0.20627   1.34828   0.45136
C     0.87027   0.92251  -0.42143
C     1.48716  -0.34884  -0.38197
C     2.59201  -0.61500  -1.18703
C     3.08463   0.35886  -2.06312
C     2.48492   1.62248  -2.11039
C     1.40043   1.90766  -1.28594
C    -1.40988  -0.72416   0.83920
C    -1.30400  -1.25105  -0.45491
N    -1.21386  -1.69539  -1.53482
C    -1.97034  -1.51113   1.85878
N    -2.43788  -2.18645   2.69418
H    -1.64750   2.34407   2.18874
H    -2.98877   1.18330   1.85905
H    -1.74213   0.80373   3.08862
H    -0.29004   2.42319   0.62238
H     1.12862  -1.11692   0.30193
H     3.06982  -1.59560  -1.13500
H     3.94072   0.13457  -2.70346
H     2.87218   2.38977  -2.78409
H     0.94515   2.90040  -1.30254
