57
Generated by autodE on: 2022-06-05. E = -1241.434761 Ha
C    -6.84710   0.13100  -1.18738
N    -6.33369  -1.16870  -0.82389
C    -5.04056  -1.51606  -0.87384
O    -4.13039  -0.72799  -1.16507
C    -4.77545  -3.01329  -0.52881
C    -3.40985  -3.13196   0.17303
N    -5.84765  -3.47700   0.35696
C    -6.31966  -4.82000  -0.00887
C    -5.73784  -5.88760   0.93515
C    -7.86045  -4.79513  -0.00563
C    -8.53261  -4.06239  -0.99857
C    -9.92434  -3.96431  -1.00521
C   -10.67868  -4.59964  -0.01145
C   -10.02213  -5.33210   0.97932
C    -8.62503  -5.43149   0.97927
C    -5.75375  -4.96478  -1.42073
C    -4.90962  -3.96322  -1.75575
C    -4.21261  -3.66143  -3.09909
C    -5.11758  -2.65128  -3.85044
C    -2.81473  -3.03712  -2.91247
C    -4.03040  -4.86213  -4.06592
C    -3.12278  -6.01644  -3.63980
C    -3.53646  -6.75723  -2.37042
C    -4.98065  -7.25306  -2.34379
C    -6.10380  -6.22039  -2.18775
F    -7.13588  -6.87969  -1.54255
F    -6.67700  -5.89618  -3.40796
H    -7.36826   0.60572  -0.34060
H    -7.55628   0.05328  -2.02716
H    -6.01123   0.77389  -1.48984
H    -6.95059  -1.90122  -0.47614
H    -3.16034  -4.19074   0.32896
H    -2.59813  -2.65541  -0.38265
H    -3.47473  -2.64117   1.15752
H    -5.56654  -3.43340   1.33316
H    -6.12456  -6.89076   0.71312
H    -4.64307  -5.90572   0.84011
H    -5.98289  -5.64914   1.98124
H    -7.95541  -3.56862  -1.78274
H   -10.42377  -3.39226  -1.79126
H   -11.76878  -4.52514  -0.01311
H   -10.59754  -5.83490   1.76082
H    -8.14006  -6.01479   1.76232
H    -6.11767  -3.07981  -4.01500
H    -5.23040  -1.70148  -3.31336
H    -4.67540  -2.42203  -4.83296
H    -2.86013  -2.07247  -2.39853
H    -2.36957  -2.87200  -3.90599
H    -2.14219  -3.70175  -2.35276
H    -3.60123  -4.42847  -4.98349
H    -5.00612  -5.25179  -4.36733
H    -2.08627  -5.66143  -3.52000
H    -3.09992  -6.73804  -4.47519
H    -2.88808  -7.64054  -2.25281
H    -3.35319  -6.13153  -1.48335
H    -5.21742  -7.84641  -3.24234
H    -5.09770  -7.92155  -1.47887
