26
Generated by autodE on: 2022-06-05. E = -589.393206 Ha
C    -1.74059   0.62771  -2.76250
C    -1.02422  -0.34860  -1.81641
C    -1.64495  -1.75298  -1.93921
C    -1.06968   0.09749  -0.42479
C    -0.78635   0.36017   0.72660
C     0.21487   0.50113   1.78299
F    -0.27126   0.14760   3.01808
F     0.57632   1.82735   1.90607
C     1.44483  -0.33778   1.45663
C     2.01257  -0.15470   0.03609
C     1.44122  -1.04097  -1.10761
C     0.50572  -0.38351  -2.14435
H    -2.82146   0.65287  -2.55612
H    -1.59603   0.30551  -3.80538
H    -1.34143   1.64768  -2.65653
H    -1.57263  -2.09544  -2.98311
H    -2.70724  -1.73680  -1.65228
H    -1.12683  -2.48028  -1.29716
H     2.20183  -0.06438   2.20935
H     1.17210  -1.39029   1.63058
H     3.08798  -0.37430   0.11338
H     1.95214   0.91094  -0.24280
H     0.96057  -1.93649  -0.67888
H     2.30394  -1.42195  -1.67561
H     0.60027  -0.91330  -3.10667
H     0.84136   0.65150  -2.32178
