31
Generated by autodE on: 2022-07-27. E = -651.937061 Ha
C    -0.81034   2.81875   0.12628
N     0.04065   1.74122   0.58291
C     1.30895   1.58659   0.10077
O     1.83699   2.51481  -0.56079
C     2.05824   0.39237   0.42643
C     3.54999   0.42482   0.27391
N     1.54034  -0.76041   0.94692
C     0.35508  -1.39078   0.95568
C     0.22031  -2.48830   1.97176
C    -0.73937  -1.11954   0.03360
C    -0.55580  -0.49225  -1.22368
C    -1.61792  -0.33085  -2.10837
C    -2.90684  -0.75708  -1.76278
C    -3.11036  -1.37399  -0.52447
C    -2.04558  -1.56080   0.35659
H    -1.80471   2.69713   0.57473
H    -0.92104   2.81494  -0.97200
H    -0.41515   3.80482   0.41842
H    -0.40815   0.96868   1.05611
H     3.94965   1.43152   0.46345
H     3.88525   0.12981  -0.73895
H     4.02699  -0.27774   0.98004
H     2.25300  -1.28698   1.46245
H    -0.26510  -3.37863   1.54400
H     1.20848  -2.78091   2.36069
H    -0.38560  -2.17336   2.84029
H     0.43376  -0.14627  -1.52170
H    -1.43975   0.14354  -3.07652
H    -3.74190  -0.60655  -2.45065
H    -4.10922  -1.71223  -0.23812
H    -2.23215  -2.04334   1.31657
