57
Generated by autodE on: 2022-06-05. E = -1241.320254 Ha. Imaginary frequency = -155.3 cm-1
C    -7.45387  -0.25579  -0.06065
N    -6.58539  -1.34997   0.32011
C    -5.44173  -1.62111  -0.35842
O    -4.98416  -0.78732  -1.17257
C    -4.73467  -2.86707  -0.04915
C    -3.23437  -2.77666   0.09481
N    -5.28746  -3.87417   0.69985
C    -6.39698  -4.63774   0.65222
C    -6.38058  -5.76768   1.64848
C    -7.68711  -4.28569   0.02725
C    -7.82630  -3.48083  -1.12648
C    -9.07580  -3.21836  -1.68107
C   -10.23814  -3.73545  -1.09780
C   -10.12600  -4.53442   0.04241
C    -8.87275  -4.81029   0.59165
C    -5.38162  -5.47570  -1.55947
C    -4.91670  -4.47337  -2.12115
C    -4.44077  -3.85367  -3.38973
C    -5.48966  -2.85021  -3.90868
C    -3.08393  -3.14832  -3.26222
C    -4.37032  -5.04345  -4.39737
C    -3.29240  -6.11794  -4.17803
C    -3.11619  -6.77537  -2.79844
C    -4.25295  -7.61818  -2.20804
C    -5.55625  -6.90064  -1.83834
F    -6.15621  -7.59715  -0.80116
F    -6.46919  -7.04305  -2.88409
H    -8.35351  -0.28380   0.56677
H    -7.76046  -0.33193  -1.11715
H    -6.95992   0.71899   0.07775
H    -6.94228  -2.02916   0.97957
H    -2.73060  -3.69067  -0.25401
H    -2.84544  -1.93062  -0.48194
H    -2.94762  -2.61684   1.15236
H    -4.56231  -4.36549   1.22410
H    -6.92520  -6.63641   1.26314
H    -5.34622  -6.07724   1.85838
H    -6.84444  -5.47302   2.60601
H    -6.94835  -3.08724  -1.62237
H    -9.13863  -2.60197  -2.58102
H   -11.21820  -3.51941  -1.52938
H   -11.02012  -4.94934   0.51374
H    -8.82482  -5.43532   1.48231
H    -6.46589  -3.33803  -4.05047
H    -5.61402  -2.01330  -3.20907
H    -5.16494  -2.44346  -4.87960
H    -3.18448  -2.22919  -2.67100
H    -2.72035  -2.87134  -4.26460
H    -2.32715  -3.78732  -2.78624
H    -4.20714  -4.61161  -5.40013
H    -5.36563  -5.51079  -4.41986
H    -2.31258  -5.68543  -4.44183
H    -3.47312  -6.91222  -4.92391
H    -2.25051  -7.45345  -2.88238
H    -2.82198  -6.01523  -2.05941
H    -4.53395  -8.44070  -2.88584
H    -3.88676  -8.07814  -1.27774
