25
Generated by autodE on: 2022-06-10. E = -3407.467155 Ha
N    -0.58339   1.06705  -4.47486
C    -1.01100   1.17675  -3.40396
C    -1.56791   1.26424  -2.03646
C    -2.29206   2.54323  -1.89687
N    -2.88698   3.52863  -1.76815
C    -0.49310   1.10943  -1.04974
C     0.21521   0.51906  -0.26797
C     0.68610  -0.56798   0.56281
Br    0.05989  -0.23657   2.43853
C     2.22242  -0.64912   0.61630
F     2.76603   0.47204   1.10104
F     2.63644  -1.67278   1.36887
F     2.70883  -0.82927  -0.62264
C     0.06103  -1.87472   0.02257
C    -1.44593  -1.82797  -0.28870
C    -1.89998  -1.32333  -1.68695
C    -2.56548   0.06089  -1.78429
H     0.27237  -2.66636   0.75534
H     0.61689  -2.12878  -0.89471
H    -1.79082  -2.86797  -0.19707
H    -1.97417  -1.27498   0.50497
H    -2.66038  -2.02909  -2.05194
H    -1.06917  -1.39499  -2.40877
H    -3.29040   0.08594  -2.61039
H    -3.10449   0.30069  -0.85626
