17
Generated by autodE on: 2022-06-10. E = -493.285550 Ha
N     3.99582  -0.93168  -0.47794
C     3.36508  -0.03715  -0.03684
N     2.76572   1.01222   0.47918
O     1.34330   0.89040   0.42440
C     0.70287  -0.10579  -0.04772
C    -0.72712  -0.10900  -0.04640
C    -1.48333   0.97391   0.46169
C    -2.86957   0.91141   0.43564
C    -3.51431  -0.21915  -0.09142
C    -2.77256  -1.29356  -0.59568
C    -1.38203  -1.24389  -0.57592
H     1.26636  -0.95679  -0.45325
H    -0.97097   1.84711   0.86822
H    -3.45994   1.74292   0.82539
H    -4.60579  -0.25957  -0.10771
H    -3.28201  -2.16859  -1.00342
H    -0.78811  -2.07376  -0.96501
