17
Generated by autodE on: 2022-07-27. E = -493.286673 Ha
N     2.18082   1.50417   3.65393
C     1.61811   1.10691   2.69836
N     0.85131   0.70049   1.70717
O     1.71929   0.23947   0.68605
C     1.26103  -0.21622  -0.41526
C    -0.08342  -0.37095  -0.87265
C    -1.25447  -0.03293  -0.14585
C    -2.50286  -0.24239  -0.72214
C    -2.61107  -0.78168  -2.01010
C    -1.46230  -1.11889  -2.73854
C    -0.20890  -0.91706  -2.17817
H     2.08122  -0.52157  -1.07369
H    -1.16061   0.38461   0.85209
H    -3.40415   0.01683  -0.16315
H    -3.59823  -0.94065  -2.45018
H    -1.55158  -1.53850  -3.74224
H     0.69357  -1.17595  -2.73595
