26
Generated by autodE on: 2022-06-23. E = -689.460854 Ha
C     2.76902   1.55042  -0.67920
O     2.17609   0.83961   0.41289
C     0.90373   0.38841   0.20607
C     0.60059  -0.92721   0.01918
O     1.41456  -1.98069  -0.03817
C     2.83785  -1.86567   0.06104
C    -0.83695  -1.34855  -0.13861
O    -1.08930  -2.53514  -0.29631
C    -1.90861  -0.32004  -0.11207
C    -3.32166  -0.78284  -0.29068
C    -1.59474   0.98632   0.07288
C    -2.64015   2.05570   0.11185
C    -0.17224   1.40068   0.26799
O     0.11505   2.57610   0.48806
H     3.78569   1.81927  -0.36311
H     2.82236   0.91056  -1.57571
H     2.20608   2.46573  -0.91495
H     3.21608  -2.89253  -0.02107
H     3.24278  -1.25934  -0.76160
H     3.13304  -1.43564   1.02673
H    -3.36977  -1.86896  -0.43138
H    -3.78554  -0.29202  -1.16202
H    -3.93349  -0.51216   0.58571
H    -2.19015   3.04468   0.25701
H    -3.22556   2.06261  -0.82231
H    -3.35696   1.86911   0.92896
