39
Generated by autodE on: 2022-10-07. E = -914.627701 Ha
C     0.80896   3.33110   0.41869
N    -0.44252   2.68684   0.01154
C    -0.50460   1.27034   0.26702
N    -0.43004   0.80399   1.61868
N    -1.88947   0.83560  -0.22924
C    -1.74972  -0.62026  -0.53403
C    -2.51874  -0.98135  -1.74229
N    -3.11360  -1.32811  -2.67380
C    -2.34524  -1.42269   0.68709
C    -1.82221  -2.79950   0.88822
O    -3.18780  -0.86929   1.35331
O    -0.39347  -0.86460  -0.70728
C     0.39228   0.36617  -0.66838
C     0.49897   0.91328  -2.08630
C     1.74537  -0.00124  -0.07024
C     2.90434   0.71602  -0.40344
C     4.13499   0.38654   0.16899
C     4.23079  -0.67251   1.07510
C     3.08577  -1.40482   1.39851
C     1.85388  -1.07412   0.82963
H     1.15886   3.02128   1.41967
H     0.64267   4.41610   0.43740
H     1.60903   3.13163  -0.30435
H    -1.19928   3.11421   0.55072
H    -0.92405   1.44454   2.24292
H     0.53877   0.74022   1.92722
H    -2.61980   0.93958   0.50189
H    -2.16196   1.39343  -1.05088
H    -2.51432  -3.36822   1.52143
H    -0.84816  -2.72214   1.40006
H    -1.64983  -3.30625  -0.07259
H     1.05150   1.85904  -2.11202
H     1.02652   0.17669  -2.70705
H    -0.48911   1.09493  -2.53092
H     2.85961   1.54099  -1.11306
H     5.02348   0.96158  -0.10117
H     5.19400  -0.92966   1.52173
H     3.14775  -2.24300   2.09622
H     0.97173  -1.65882   1.08173
