26
Generated by autodE on: 2022-10-13. E = -669.350870 Ha
C    -2.02056  -1.67483   1.62552
C    -2.67942  -1.14572   0.37028
O    -3.86444  -1.40932   0.10271
C    -1.89374  -0.32113  -0.50289
C    -2.42014   0.13190  -1.72437
N    -2.91816   0.44946  -2.73525
O    -0.58892  -0.12743  -0.11808
C     0.33481   0.68164  -0.50620
C     0.05642   1.69660  -1.54540
C     1.60884   0.51092   0.17232
C     2.73591   1.28030  -0.19197
C     3.95138   1.10245   0.46534
C     4.06492   0.16284   1.49429
C     2.95431  -0.60864   1.86367
C     1.73977  -0.44376   1.21009
H    -2.75914  -2.25674   2.19198
H    -1.63954  -0.85300   2.25079
H    -1.16286  -2.31842   1.37370
H     0.85998   2.43359  -1.62360
H    -0.08084   1.21707  -2.52852
H    -0.88480   2.21488  -1.30039
H     2.67123   2.01561  -0.99330
H     4.81533   1.70208   0.17205
H     5.01888   0.02819   2.00900
H     3.04137  -1.34399   2.66615
H     0.87963  -1.04755   1.49728
