26
Generated by autodE on: 2022-10-07. E = -669.350922 Ha
C     2.48063  -0.76655  -1.68485
C     2.89572  -0.44324  -0.26613
O     4.08741  -0.48659   0.08503
C     1.86646  -0.08959   0.66928
C     2.19378   0.30443   1.97745
N     2.54441   0.64679   3.04079
O     0.59222  -0.03672   0.15702
C    -0.57201   0.02542   0.70435
C    -0.71215  -0.01058   2.17626
C    -1.67673   0.10143  -0.23646
C    -1.42823   0.06892  -1.63032
C    -2.48195   0.13601  -2.53289
C    -3.80096   0.24592  -2.07096
C    -4.05897   0.28788  -0.69753
C    -3.00973   0.21521   0.21606
H     3.37464  -1.04139  -2.25948
H     1.75748  -1.59617  -1.70737
H     1.99520   0.10248  -2.15660
H    -0.34213   0.92573   2.62516
H    -1.75067  -0.15963   2.48327
H    -0.09528  -0.83135   2.57682
H    -0.40392  -0.01238  -1.99262
H    -2.27849   0.10511  -3.60523
H    -4.62659   0.30074  -2.78404
H    -5.08463   0.37721  -0.33421
H    -3.23223   0.25170   1.28184
