13
Generated by autodE on: 2022-10-07. E = -245.298498 Ha
C     1.77385  -0.84250  -0.24446
N     0.74588   0.13051  -0.57133
C    -0.43158   0.21093   0.05257
N    -0.72786  -0.62774   1.04789
N    -1.31538   1.14313  -0.31619
H     1.41665  -1.87352  -0.39750
H     2.11421  -0.73418   0.79771
H     2.62989  -0.67170  -0.90675
H     0.92203   0.79491  -1.31873
H    -0.08052  -1.35116   1.33760
H    -1.63198  -0.57694   1.50471
H    -1.11207   1.76693  -1.08942
H    -2.22431   1.19587   0.13041
