51
Generated by autodE on: 2022-06-14. E = -1229.095024 Ha
C    -1.54537   3.87088   1.76466
N    -0.74980   2.83617   1.13364
C    -1.21330   2.08515   0.13396
O    -2.35142   2.23764  -0.34700
C    -0.29672   0.99502  -0.42193
N     1.09079   1.12509   0.00391
C     1.82370   2.19659  -0.66129
C     1.73521  -0.19058  -0.02432
C     2.93693  -0.25492   0.91263
C     2.11915  -0.55458  -1.48314
O     1.37171  -0.39397  -2.42809
O     3.35110  -1.04045  -1.60641
C     3.77377  -1.40951  -2.92929
C     0.59440  -1.19001   0.34499
F     0.86999  -2.35714  -0.37074
C     0.42086  -1.55640   1.82788
C    -0.63567  -2.68362   1.91526
C    -1.97514  -1.93899   1.65118
C    -1.51508  -0.49849   1.35282
C    -0.36225  -0.35139   2.36489
C    -0.75900  -0.45098  -0.02240
C    -1.61994  -1.09172  -1.12197
O    -1.54875  -2.28647  -1.43131
N    -2.53040  -0.27253  -1.67906
C    -3.47825  -0.76235  -2.65876
H    -0.90921   4.43866   2.45451
H    -2.38744   3.43953   2.33037
H    -1.95773   4.55747   1.01032
H     0.18218   2.62161   1.47746
H    -0.37913   1.09180  -1.51686
H     2.84477   2.25883  -0.26086
H     1.33434   3.16096  -0.47073
H     1.88176   2.06199  -1.75865
H     3.32023  -1.28194   0.97701
H     2.64567   0.08148   1.91567
H     3.75253   0.38612   0.55268
H     3.75311  -0.53513  -3.59510
H     3.11738  -2.19349  -3.33327
H     4.79789  -1.78521  -2.82477
H     1.36713  -1.79900   2.32317
H    -0.44340  -3.48148   1.18757
H    -0.61144  -3.13035   2.91931
H    -2.56195  -2.38690   0.83993
H    -2.60854  -1.92875   2.55012
H    -2.32563   0.23718   1.40957
H     0.18498   0.59384   2.29962
H    -0.69995  -0.50002   3.40101
H    -2.60492   0.69441  -1.34197
H    -4.10376   0.07377  -2.99611
H    -4.13134  -1.54499  -2.23779
H    -2.96388  -1.19272  -3.53251
