27
Generated by autodE on: 2022-06-14. E = -648.748498 Ha
C     4.40970   1.23975  -0.47633
N     2.98227   1.12346  -0.27939
C     2.35235  -0.08160  -0.33849
O     3.01446  -1.11396  -0.57298
C     0.91242   0.04078  -0.10639
N    -0.01013  -0.93078  -0.07025
C     0.42537  -2.33414  -0.26432
C    -1.35746  -0.76078   0.13788
C    -2.24626  -1.97265   0.17757
C    -1.91549   0.56058   0.30898
O    -1.31196   1.63865   0.30333
O    -3.26568   0.54076   0.48805
C    -3.89867   1.80660   0.66416
H     4.69505   2.29542  -0.38954
H     4.97196   0.66030   0.27477
H     4.71243   0.87386  -1.47133
H     2.44270   1.95821  -0.08073
H     0.52600   1.04028   0.05694
H     0.17385  -2.91421   0.63104
H     1.50158  -2.34660  -0.43499
H    -0.10282  -2.75768  -1.12615
H    -2.24448  -2.53272  -0.77284
H    -3.27599  -1.66365   0.37456
H    -1.95649  -2.68296   0.96979
H    -4.96776   1.59566   0.79147
H    -3.74756   2.45200  -0.21465
H    -3.51149   2.32369   1.55550
