28
Generated by autodE on: 2022-06-03. E = -720.902915 Ha
C     4.35069   1.56903  -0.35673
N     3.11157   0.98245   0.11154
C     2.34924   0.21671  -0.70131
O     2.69296  -0.03910  -1.86377
C     1.06833  -0.25593  -0.11982
C     0.60073   0.34083   1.06928
N     0.31987   0.86384   2.07588
N     0.33931  -1.25944  -0.70679
C     1.01807  -2.21982  -1.60970
N    -0.89902  -1.54736  -0.52276
C    -1.78453  -0.61681   0.04337
C    -1.88233   0.71366  -0.41431
C    -2.87936   1.54562   0.08918
C    -3.77619   1.07885   1.05813
C    -3.68473  -0.24276   1.50571
C    -2.70695  -1.09356   0.98982
H     5.11474   0.80075  -0.56128
H     4.73353   2.24801   0.41489
H     4.19007   2.13946  -1.28441
H     2.83899   1.12540   1.07803
H     2.03607  -2.41108  -1.26000
H     1.04273  -1.79989  -2.62083
H     0.41066  -3.12944  -1.59115
H    -1.18649   1.08853  -1.16690
H    -2.95519   2.57195  -0.27736
H    -4.54701   1.74224   1.45625
H    -4.38537  -0.61844   2.25489
H    -2.63603  -2.13202   1.31824
