28
Generated by autodE on: 2022-07-27. E = -720.907883 Ha
C    -0.72875  -1.11671   3.70834
N    -0.19244  -0.58257   2.47543
C     1.10118  -0.25067   2.31784
O     1.95918  -0.35205   3.21347
C     1.53524   0.27469   0.99583
C     2.90082   0.63701   0.92372
N     4.03149   0.92300   0.87460
N     0.77150   0.40286  -0.12843
C     1.44118   0.95217  -1.34091
N    -0.48425   0.11900  -0.09971
C    -1.24858   0.01193  -1.26516
C    -0.83098  -0.67552  -2.42338
C    -1.70494  -0.81594  -3.50130
C    -2.99682  -0.28248  -3.44581
C    -3.42162   0.38100  -2.28883
C    -2.56236   0.51648  -1.20043
H    -1.52260  -0.46454   4.10617
H     0.07270  -1.19018   4.45229
H    -1.15756  -2.11900   3.54887
H    -0.78923  -0.44223   1.65732
H     0.67702   1.33107  -2.02303
H     2.03546   0.16773  -1.82391
H     2.09247   1.77337  -1.02559
H     0.16013  -1.12713  -2.46704
H    -1.37319  -1.35675  -4.39063
H    -3.67415  -0.39485  -4.29509
H    -4.43247   0.79109  -2.23147
H    -2.88723   1.02257  -0.28949
