24
Generated by autodE on: 2022-06-03. E = -593.135196 Ha
C     3.46092   1.43518  -0.30166
O     2.08737   1.14661  -0.59894
C     1.53186   0.12356   0.05937
O     2.12745  -0.55742   0.87555
C     0.12208  -0.07203  -0.32389
C    -0.76137  -0.88273   0.31638
C    -0.53001  -1.69969   1.45187
N    -0.40887  -2.39761   2.37668
C    -2.13594  -0.62681  -0.28960
C    -2.53795   0.80183   0.20446
C    -1.52649   1.72440  -0.53006
C    -0.66177   0.71253  -1.35467
C    -1.72987  -0.32979  -1.74803
H     3.57961   1.67973   0.76387
H     3.72971   2.29748  -0.92224
H     4.09566   0.57241  -0.55056
H    -2.88092  -1.40840  -0.10450
H    -2.48430   0.88275   1.29886
H    -3.57271   1.01225  -0.10183
H    -0.90604   2.32055   0.15320
H    -2.03583   2.41461  -1.21778
H    -0.06333   1.16363  -2.15266
H    -2.55177   0.09743  -2.34070
H    -1.30902  -1.20447  -2.26470
