52
Generated by autodE on: 2022-06-03. E = -1314.016160 Ha. Imaginary frequency = -319.0 cm-1
C    -0.71534  -2.95792   2.94143
N    -0.06002  -2.28815   1.83431
C     1.21913  -1.90417   1.94310
O     1.96291  -2.23945   2.87244
C     1.80710  -1.05230   0.84525
C     3.22299  -0.90451   0.98810
N     4.37036  -0.76476   1.11874
N     1.29297  -0.97318  -0.41921
C     2.17457  -0.98771  -1.60276
N     0.01159  -0.66676  -0.45868
C    -0.72848  -0.96813  -1.61931
C    -0.65056  -2.26817  -2.16011
C    -1.44993  -2.62329  -3.24405
C    -2.34340  -1.70136  -3.80215
C    -2.42309  -0.41589  -3.26273
C    -1.62043  -0.04193  -2.18136
C    -0.26827   1.05888   0.49597
C    -1.68337   0.75919   0.89927
O    -2.04588  -0.26089   1.45437
O    -2.51177   1.75975   0.60525
C    -3.89619   1.57123   0.93744
C     0.01304   2.34024  -0.31335
C     1.30740   2.20704  -1.14062
C     2.42005   2.17920  -0.05599
C     1.62423   2.29294   1.26561
C     0.49789   3.26711   0.83306
C     0.75897   1.04119   1.50677
C     0.50916   0.65178   2.84580
N     0.34628   0.35225   3.96190
H    -0.79072  -2.29651   3.82110
H    -0.15898  -3.85866   3.23566
H    -1.72525  -3.25060   2.62875
H    -0.65007  -1.74020   1.20754
H     2.98451  -0.25743  -1.48594
H     1.58699  -0.74383  -2.49118
H     2.60517  -1.99171  -1.70888
H     0.02540  -2.99793  -1.71199
H    -1.37864  -3.63502  -3.65012
H    -2.97033  -1.98459  -4.65011
H    -3.10978   0.31801  -3.69062
H    -1.68426   0.97329  -1.79923
H    -4.40580   2.49197   0.63234
H    -4.01207   1.40799   2.01806
H    -4.30040   0.70886   0.38819
H    -0.84966   2.68765  -0.88753
H     1.29635   1.33534  -1.80184
H     1.40468   3.09219  -1.78449
H     3.08037   3.05359  -0.14528
H     3.06316   1.29540  -0.09252
H     2.22701   2.57240   2.13713
H    -0.26113   3.42588   1.61180
H     0.87153   4.23839   0.47147
