33
Generated by autodE on: 2022-05-29. E = -1083.299874 Ha
C    -3.57735   1.51628   0.44712
N    -2.38128   1.14003  -0.28115
C    -2.00333  -0.13501  -0.38408
O    -2.66689  -1.10469   0.00245
C    -0.65016  -0.39470  -1.07016
C    -0.88394  -1.22003  -2.32941
O    -0.01062   0.83707  -1.44538
C     1.18525   1.07923  -0.73826
C     1.00317   2.16033   0.34375
C     2.15497   2.44844   1.25622
O    -0.02540   2.80912   0.35412
C     1.65276  -0.31795  -0.31890
F     2.48465  -0.34360   0.74861
F     2.32513  -0.89764  -1.34654
C     0.34134  -1.11356  -0.08960
F     0.53544  -2.42785  -0.43818
C    -0.07836  -1.02793   1.38850
C    -0.29724  -2.30967   2.11525
O    -0.19161   0.07798   1.88151
H    -3.43284   1.42016   1.53660
H    -4.41750   0.87183   0.15465
H    -3.82914   2.55865   0.21458
H    -1.65476   1.84176  -0.43635
H    -1.50161  -0.62855  -3.02056
H    -1.41044  -2.15070  -2.08608
H     0.07365  -1.45397  -2.81296
H     1.93775   1.49255  -1.43244
H     3.12119   2.28276   0.75888
H     2.09689   1.75717   2.11256
H     2.07676   3.47853   1.62855
H    -1.06106  -2.90345   1.58994
H     0.63509  -2.89740   2.10676
H    -0.60953  -2.10151   3.14600
