11
Generated by autodE on: 2022-05-29. E = -529.179364 Ha
C    -2.59665  -0.35963  -0.40552
C    -1.34662   0.39129  -0.04731
O    -1.33793   1.56957   0.28202
C    -0.09532  -0.39075  -0.11855
F    -0.19648  -1.68033  -0.49076
C     1.13807   0.07438   0.15401
F     2.21215  -0.66530   0.06824
F     1.40658   1.29238   0.52794
H    -2.72516  -1.22474   0.26503
H    -2.51981  -0.75682  -1.43061
H    -3.46001   0.31231  -0.32464
