22
Generated by autodE on: 2022-05-29. E = -554.014145 Ha
C    -2.78720   2.18929   0.04533
N    -1.71356   1.22018   0.01709
C    -1.91825  -0.11262  -0.06447
O    -3.03804  -0.64307  -0.12432
C    -0.70081  -0.95698  -0.07941
C    -0.72623  -2.42527  -0.16907
O     0.42013  -0.31629  -0.00609
C     1.66404  -0.78709   0.00599
C     2.71498   0.17417   0.09292
C     2.33731   1.64075   0.16402
O     3.90490  -0.19144   0.11014
H    -2.72623   2.87409  -0.81564
H    -3.74581   1.65919   0.00665
H    -2.75174   2.79131   0.96720
H    -0.75644   1.55632   0.05952
H    -1.75880  -2.78505  -0.22438
H    -0.16499  -2.76561  -1.06000
H    -0.22215  -2.87398   0.70798
H     1.83067  -1.86246  -0.04966
H     1.72492   1.84537   1.05677
H     3.25437   2.24297   0.20578
H     1.74253   1.93858  -0.71400
