33
Generated by autodE on: 2022-05-29. E = -1083.179212 Ha. Imaginary frequency = -302.8 cm-1
C    -3.04640   1.36812   1.03938
N    -2.01794   1.14191   0.04563
C    -1.96912   0.00072  -0.63344
O    -2.81069  -0.90653  -0.53255
C    -0.83584  -0.24062  -1.59803
C    -1.01486  -1.33852  -2.58231
O     0.25960   0.41631  -1.73636
C     1.21013   1.13339  -1.08341
C     1.02194   2.40336  -0.43151
C     2.29872   3.07429   0.00961
O    -0.06983   2.96307  -0.23241
C     1.65313  -0.32786   0.68840
F     1.49123   0.50942   1.69118
F     2.92237  -0.42019   0.32824
C     0.79447  -1.38539   0.48471
F     1.21191  -2.30181  -0.42016
C    -0.38892  -1.70224   1.27627
C    -1.00250  -3.05292   1.02271
O    -0.83505  -0.91365   2.10949
H    -3.10081   0.52144   1.73917
H    -4.03923   1.49225   0.57522
H    -2.80021   2.28139   1.59559
H    -1.30466   1.87594  -0.11822
H    -2.03957  -1.35975  -2.97748
H    -0.84089  -2.30609  -2.07766
H    -0.28309  -1.23743  -3.39302
H     2.16650   0.98286  -1.58551
H     3.17422   2.41430  -0.04592
H     2.16853   3.43581   1.04055
H     2.47523   3.95375  -0.63192
H    -1.37995  -3.10869  -0.00961
H    -0.25323  -3.85048   1.14606
H    -1.83299  -3.20265   1.72399
