34
Generated by autodE on: 2022-10-21. E = -3451.864366 Ha. Imaginary frequency = -297.3 cm-1
C     0.36975   2.62364   0.23434
O    -0.01520   1.37474   0.81782
C    -0.88179   0.62316   0.13746
C    -1.88371   1.12221  -0.92760
C    -3.17216   1.47905  -0.14811
C    -3.66684   0.30325   0.25253
C    -2.67321  -0.75551  -0.28204
O    -2.26583  -0.13316  -1.51398
C    -1.34970  -0.61450   0.50211
Br   -1.11814  -1.36805   2.22859
C    -0.10506  -2.18285  -0.74655
N     0.64060  -1.52020  -1.40069
C     1.17088  -0.34504  -1.75993
C     0.65771   0.26031  -2.92837
N     0.22623   0.79664  -3.87419
C     2.32656   0.20112  -1.04340
C     2.69423  -0.30039   0.22083
C     3.74864   0.27470   0.93064
C     4.45751   1.35750   0.39963
C     4.10331   1.85623  -0.85975
C     3.05432   1.28423  -1.57711
H    -0.45710   3.34850   0.29883
H     1.22636   2.98668   0.81507
H     0.66608   2.49161  -0.81510
H    -1.52340   1.83262  -1.67759
H    -3.52294   2.49107   0.05027
H    -4.54307   0.08916   0.86336
H    -3.04718  -1.77344  -0.43733
H    -0.33257  -3.24165  -0.59549
H     2.14357  -1.13486   0.65842
H     4.01440  -0.12505   1.91228
H     5.28012   1.80719   0.96000
H     4.65060   2.69882  -1.28922
H     2.78432   1.68607  -2.55612
