17
Generated by autodE on: 2022-10-26. E = -513.418889 Ha
C     2.32891   0.11927  -2.75374
O     1.51210  -0.65043  -1.86232
C     0.80508   0.03633  -0.95219
O     0.82921   1.25805  -0.85304
C     0.01569  -0.85231  -0.11096
C     0.00103  -2.33173  -0.25006
O    -0.73380  -0.35389   0.83247
C    -0.97482   0.87193   1.25245
C    -1.86901   0.98186   2.32532
N    -2.61161   1.11521   3.22092
H     3.08347   0.68857  -2.19127
H     2.81714  -0.60449  -3.41629
H     1.71063   0.81459  -3.34030
H     1.01209  -2.75040  -0.11330
H    -0.67211  -2.76924   0.49883
H    -0.33748  -2.62995  -1.25635
H    -0.49520   1.72316   0.77674
