39
Generated by autodE on: 2022-10-21. E = -993.162945 Ha. Imaginary frequency = -197.5 cm-1
C     4.12357   0.18057  -1.44557
O     3.20029  -0.66122  -0.74065
C     2.35399  -0.05317   0.09674
O     2.35900   1.15135   0.30853
C     1.44526  -1.02269   0.72358
C     1.62249  -2.49150   0.57340
O     0.66403  -0.64367   1.70343
C     0.14255   0.56552   1.92217
C    -0.78572   0.62733   2.97613
N    -1.60336   0.71220   3.80863
C    -1.13987   0.67413  -0.26203
O    -0.89214   1.96529  -0.50507
C    -1.63741   2.94586   0.22216
C    -2.47185   0.10514   0.19463
C    -3.30190  -0.01451  -1.12905
C    -2.59035  -1.17177  -1.89158
C    -1.41944  -1.55021  -0.93370
C    -2.10401  -1.36938   0.43357
C    -0.47321  -0.34496  -0.95045
C     0.39812  -0.09216  -2.03311
N     1.10952   0.09338  -2.93989
H     3.58175   0.93317  -2.03380
H     4.68832  -0.48428  -2.10895
H     4.80272   0.67870  -0.73857
H     0.80277  -3.01992   1.07647
H     2.58352  -2.82701   1.00042
H     1.62748  -2.76157  -0.49266
H     0.65792   1.44918   1.55814
H    -1.49725   2.82155   1.30663
H    -1.24370   3.92099  -0.08898
H    -2.70856   2.88668  -0.02145
H    -2.96997   0.64059   1.00959
H    -4.34185  -0.27059  -0.88106
H    -3.31053   0.93028  -1.69034
H    -2.22343  -0.87016  -2.88308
H    -3.26022  -2.03399  -2.02614
H    -0.94364  -2.51671  -1.13723
H    -1.44540  -1.53909   1.29118
H    -2.99721  -2.00207   0.53559
