24
Generated by autodE on: 2022-06-16. E = -775.681354 Ha
C     3.14665   1.73881   0.67414
N     2.43762   0.73118  -0.08928
C     1.43867  -0.00131   0.41800
O     1.01214   0.05172   1.57249
N     0.89813  -0.97927  -0.47022
O     1.05363  -0.66612  -1.83617
N    -0.07799   0.18720  -2.22815
C    -1.13125  -0.12152  -1.25291
C    -1.54798   1.09388  -0.44137
O    -1.33467   2.22762  -0.83859
C    -2.22110   0.82975   0.84632
C    -1.99492  -0.30715   1.53044
C    -1.11096  -1.38421   1.03233
O    -0.91803  -2.39974   1.67715
C    -0.53823  -1.25027  -0.37928
H     2.97278   2.74318   0.25783
H     2.78952   1.71923   1.71032
H     4.22900   1.53993   0.66782
H     2.65708   0.60221  -1.07302
H     0.24050   1.14476  -2.03323
H    -2.04330  -0.48612  -1.75322
H    -2.82818   1.63929   1.25928
H    -2.43407  -0.47926   2.51642
H    -0.71002  -2.21780  -0.86745
