24
Generated by autodE on: 2022-05-28. E = -606.302741 Ha
C    -1.04006   2.61221  -0.60328
C    -0.50621   1.23276  -0.43248
C     0.76895   0.81719  -0.46432
C     2.03135   1.57597  -0.67605
C     0.81149  -0.69190  -0.16921
C     1.36066  -0.90325   1.19836
N     1.73974  -1.04987   2.28461
C     1.67216  -1.41799  -1.13241
N     2.33375  -1.96984  -1.90742
N    -0.57635  -1.10587  -0.31268
C    -1.44746   0.06519  -0.13846
C    -2.67340  -0.00522  -1.05410
C    -1.90424   0.18724   1.27227
N    -2.25566   0.26757   2.37580
H    -1.67393   2.88732   0.25643
H    -1.67414   2.67535  -1.50260
H    -0.23410   3.35175  -0.69417
H     2.56610   1.21154  -1.56894
H     1.83443   2.64816  -0.80333
H     2.71145   1.44598   0.18288
H    -0.82679  -1.90439   0.26877
H    -2.33640  -0.02308  -2.09988
H    -3.24718  -0.91919  -0.84290
H    -3.32819   0.86349  -0.89601
