10
Generated by autodE on: 2022-05-28. E = -156.052993 Ha
C     2.05349   0.20430   0.13134
C     0.60320   0.06003   0.03839
C    -0.60320  -0.06002  -0.03838
C    -2.05347  -0.20432  -0.13134
H     2.56573  -0.39781  -0.63716
H     2.42603  -0.12452   1.11552
H     2.36097   1.25388  -0.00783
H    -2.56297   0.75929   0.03424
H    -2.43404  -0.91589   0.61990
H    -2.35598  -0.57484  -1.12470
