14
Generated by autodE on: 2022-07-26. E = -450.169671 Ha
C    -2.67157   0.67990  -1.17199
C    -1.45211   0.45711  -0.33616
C    -1.49439   0.85786   1.02710
N    -1.63572   1.22363   2.12372
N    -0.37562  -0.09479  -0.85984
C     0.86106  -0.42568  -0.36172
C     1.23761  -0.20430   0.97767
N     1.60538  -0.04579   2.07482
C     1.78862  -1.02030  -1.24332
N     2.56989  -1.51455  -1.95746
H    -3.52998   0.13904  -0.74238
H    -2.50628   0.33191  -2.20103
H    -2.92784   1.75128  -1.19116
H    -0.48272  -0.33240  -1.85173
