14
Generated by autodE on: 2022-05-28. E = -450.170014 Ha
C    -2.05418  -0.61006   0.52072
C    -1.29053   0.49735  -0.12133
C    -1.97893   1.63393  -0.62523
N    -2.57944   2.54921  -1.02519
N     0.02345   0.50280  -0.26579
C     0.99223  -0.39694   0.09642
C     0.75020  -1.60557   0.78506
N     0.64711  -2.62003   1.35384
C     2.32867  -0.08571  -0.24160
N     3.43941   0.15175  -0.51290
H    -1.74021  -0.74381   1.56801
H    -3.12651  -0.38268   0.50215
H    -1.88344  -1.55827  -0.01340
H     0.40650   1.32932  -0.73652
