23
Generated by autodE on: 2022-05-29. E = -3074.434058 Ha
C     3.57466   1.01851   1.77160
O     2.15127   0.86995   1.73977
C     1.64612   0.11480   0.74284
O     2.34630  -0.42404  -0.09512
C     0.18321   0.04443   0.82299
C    -0.69128  -0.34187  -0.13602
Br   -0.34717  -0.92806  -1.88673
C    -2.09652  -0.03135   0.33170
C    -2.20621   1.53000   0.29328
C    -1.23051   1.97747   1.41805
C    -0.67253   0.62053   1.95104
C    -1.92461  -0.27311   1.84580
H     4.06459   0.04032   1.88711
H     3.79458   1.65489   2.63688
H     3.93626   1.49654   0.84913
H    -2.89700  -0.56414  -0.19373
H    -1.94348   1.93013  -0.69620
H    -3.24215   1.82591   0.51316
H    -0.42285   2.62916   1.05673
H    -1.76183   2.50823   2.22169
H    -0.17098   0.67850   2.92305
H    -1.72619  -1.32617   2.09256
H    -2.77524   0.09845   2.43644
