14
Generated by autodE on: 2022-05-29. E = -324.801283 Ha
C    -2.76090   1.14846   0.81163
C    -2.15404   0.01367   0.05115
N    -0.94110   0.00820  -0.33869
C     0.20333   0.06504  -0.77460
C     1.45758  -0.38365  -0.19538
C     2.18681   0.63544   0.64202
O     1.90749  -1.50104  -0.44748
H    -2.03933   1.96513   0.95385
H    -3.11050   0.80578   1.80050
H    -3.64328   1.53772   0.27564
H    -2.75862  -0.86845  -0.19294
H     3.24400   0.34929   0.73533
H     2.09749   1.64662   0.21875
H     1.72710   0.65314   1.64556
