37
Generated by autodE on: 2022-05-29. E = -3399.233375 Ha. Imaginary frequency = -336.5 cm-1
C     2.26354  -2.36921   1.22987
O     1.37082  -1.30733   0.88367
C     1.33953  -0.93930  -0.40645
O     2.06312  -1.45091  -1.25352
C     0.33870   0.08397  -0.71102
C    -1.26216  -1.65883  -0.50462
C    -1.01842  -2.88648  -1.22402
C    -1.25318  -2.83914  -2.70709
O    -0.50838  -3.84556  -0.64488
N    -2.02886  -1.06096   0.21479
C    -2.30677   0.06010   0.84430
C    -2.38283   0.09167   2.33456
C    -0.20734   1.07730   0.10329
Br    0.52156   1.60305   1.79964
C    -0.69634   2.18960  -0.82167
C     0.57525   2.85924  -1.42477
C     1.16280   1.73870  -2.33213
C     0.14673   0.57040  -2.14427
C    -1.17342   1.35290  -2.02547
H     2.16565  -2.50507   2.31369
H     1.97902  -3.29469   0.70828
H     3.30201  -2.11106   0.97557
H    -2.00709  -2.08969  -2.98568
H    -1.54691  -3.83870  -3.05880
H    -0.29862  -2.56994  -3.19121
H    -2.92387   0.76831   0.28056
H    -3.36657  -0.27685   2.67634
H    -2.27616   1.12574   2.68872
H    -1.59698  -0.52828   2.78888
H    -1.41363   2.88482  -0.36841
H     0.28763   3.74416  -2.01187
H     1.26976   3.18800  -0.63905
H     1.19021   2.04896  -3.38769
H     2.17976   1.43672  -2.04409
H     0.20234  -0.21450  -2.90706
H    -1.38034   1.97215  -2.91079
H    -2.04565   0.71960  -1.81786
