57
Generated by autodE on: 2022-06-08. E = -1478.621163 Ha
C     4.07149  -2.22616  -0.93888
N     2.88750  -1.42311  -0.71317
C     2.92343  -0.24027  -0.09051
O     3.95922   0.34462   0.24423
C     1.54368   0.35970   0.26166
C     1.78023   1.89603   0.33671
O     1.90609   2.53105   1.36250
O     1.84173   2.44851  -0.87006
C     2.00515   3.87436  -0.92493
C     1.08109  -0.13403   1.65997
C     1.62698  -1.52482   2.10809
O     0.79940  -2.42971   1.36969
C    -0.45661  -1.95894   1.90531
C    -0.21129  -2.01410   3.41086
C     1.08884  -1.73885   3.51187
F     1.83753  -1.53948   4.59392
C    -0.43809  -0.44660   1.50859
C    -0.81373  -0.09284   0.03669
C    -1.74602  -1.16731  -0.52512
C    -3.11294  -1.12812  -0.20952
C    -3.96989  -2.15758  -0.60439
C    -3.47379  -3.24668  -1.32869
C    -2.11342  -3.29722  -1.64283
C    -1.25632  -2.26873  -1.23829
C    -1.44137   1.31334  -0.08045
C    -2.11277   1.67386  -1.26280
C    -2.57108   2.97618  -1.46829
C    -2.36804   3.95642  -0.49162
C    -1.71015   3.61294   0.69083
C    -1.25597   2.30501   0.89424
N     0.50039  -0.09220  -0.64500
C     0.54974   0.26933  -2.05204
H     4.91470  -1.57770  -1.21256
H     4.35285  -2.79727  -0.03731
H     3.88309  -2.93289  -1.75753
H     1.96343  -1.83234  -0.83283
H     2.94201   4.17208  -0.43342
H     2.03284   4.13275  -1.98949
H     1.15504   4.36981  -0.43417
H     1.31082   0.62725   2.40972
H     2.69549  -1.71428   1.96498
H    -1.29282  -2.55038   1.52548
H    -0.96361  -2.13150   4.18850
H    -1.07251   0.10980   2.20333
H    -3.51097  -0.28589   0.35943
H    -5.03029  -2.10820  -0.34518
H    -4.14321  -4.05090  -1.64306
H    -1.71110  -4.14474  -2.20311
H    -0.19352  -2.33083  -1.46899
H    -2.28515   0.92272  -2.03441
H    -3.08954   3.22576  -2.39728
H    -2.72409   4.97705  -0.65014
H    -1.54812   4.36364   1.46798
H    -0.74507   2.07891   1.82838
H     0.23893   1.30408  -2.26454
H    -0.10298  -0.40446  -2.62432
H     1.57295   0.14296  -2.42812
