44
Generated by autodE on: 2022-06-08. E = -1071.757987 Ha
C     3.28507  -0.70323  -2.97271
N     2.92314  -0.11855  -1.70223
C     1.83098  -0.53833  -1.01413
O     1.03968  -1.37083  -1.51770
C     1.62891   0.02142   0.31818
C     2.48493   0.96914   0.93545
O     3.57553   1.37693   0.50024
O     1.98363   1.47189   2.10517
C     2.81038   2.39740   2.80887
N     0.45392  -0.43087   0.98699
C     0.65262  -1.23349   2.20311
C    -0.71953  -0.31017   0.39994
C    -0.95175   0.73848  -0.61146
C    -0.50195   2.05461  -0.39354
C    -0.77924   3.04858  -1.32842
C    -1.48752   2.73942  -2.49741
C    -1.93652   1.43461  -2.71771
C    -1.68149   0.43851  -1.77316
C    -1.83930  -1.20982   0.72973
C    -3.11429  -0.67983   0.99618
C    -4.17993  -1.53446   1.27633
C    -3.99093  -2.92078   1.25748
C    -2.73171  -3.45323   0.95987
C    -1.65607  -2.60435   0.70240
H     4.12906  -0.14277  -3.39589
H     3.58485  -1.76290  -2.88245
H     2.44603  -0.65838  -3.68444
H     3.56670   0.49257  -1.20199
H     3.00524   3.29562   2.20383
H     3.77159   1.93969   3.08841
H     2.25461   2.67368   3.71373
H    -0.28389  -1.32236   2.76446
H     1.03246  -2.22905   1.93688
H     1.40000  -0.71999   2.81757
H     0.04437   2.29479   0.51906
H    -0.44305   4.07155  -1.14566
H    -1.69416   3.52059  -3.23260
H    -2.49102   1.19051  -3.62640
H    -2.02927  -0.58159  -1.94218
H    -3.25990   0.40180   0.99717
H    -5.16391  -1.11813   1.50236
H    -4.83008  -3.58844   1.46570
H    -2.58788  -4.53518   0.92300
H    -0.67898  -3.01442   0.44433
