13
Generated by autodE on: 2022-06-08. E = -406.788332 Ha
F     1.32237  -1.59855  -1.03494
C     0.78383  -0.57672  -0.37599
C     1.10071   0.71647  -0.38294
C    -0.00565   1.33376   0.50616
C    -1.34954   1.23093  -0.25837
C    -1.64339  -0.07196  -0.27118
C    -0.47565  -0.74235   0.49473
O    -0.19447   0.27260   1.47487
H     1.86701   1.25521  -0.93575
H     0.22671   2.29016   0.98696
H    -1.87304   2.06790  -0.71950
H    -2.47039  -0.60114  -0.74291
H    -0.64542  -1.73139   0.93436
