53
Generated by autodE on: 2022-06-09. E = -3854.663477 Ha
C    -1.70757   3.48459   3.04823
N    -1.06861   2.83322   1.92050
C    -0.88004   1.51220   1.89428
O    -1.18637   0.74543   2.81121
C    -0.23927   0.94483   0.63321
O     0.10395   2.04989  -0.30230
C     1.11743   1.58446  -1.07129
O     1.67673   2.26903  -1.88530
C     1.33416   0.11262  -0.60384
C     2.64929  -0.54651  -0.91381
C     3.12889  -1.55510  -0.06156
C     4.31773  -2.22565  -0.35341
C     5.04223  -1.90201  -1.50487
C     4.56846  -0.90350  -2.35921
C     3.37917  -0.22873  -2.06851
N     1.01220   0.27655   0.83014
C     1.99300   0.99102   1.64848
C     0.04624  -0.66448  -1.11877
Br   -0.00557  -0.44508  -3.08957
C    -0.01370  -2.17635  -0.78099
C    -1.30126  -2.78568  -1.38136
C    -2.43003  -2.14432  -0.52407
C    -1.64434  -1.30922   0.51766
C    -0.40276  -2.19281   0.71031
C    -1.10665  -0.04132  -0.22035
C    -2.23995   0.79807  -0.84445
O    -2.16889   1.35440  -1.93572
N    -3.31215   0.95484  -0.03797
C    -4.41909   1.80943  -0.42056
H    -1.72547   4.56566   2.86812
H    -2.74075   3.12503   3.17647
H    -1.15771   3.28416   3.98039
H    -0.78187   3.37861   1.11390
H     2.56769  -1.81716   0.83540
H     4.67754  -3.00536   0.32179
H     5.97268  -2.42676  -1.73429
H     5.12670  -0.64368  -3.26168
H     3.02099   0.54947  -2.73855
H     1.60865   1.06113   2.67493
H     2.21917   2.00956   1.28393
H     2.92670   0.41763   1.67809
H     0.90449  -2.70184  -1.06568
H    -1.41276  -2.58970  -2.45357
H    -1.26581  -3.87572  -1.24392
H    -3.02815  -2.90792  -0.00709
H    -3.12397  -1.54233  -1.12590
H    -2.19832  -1.07544   1.43247
H     0.34105  -1.77927   1.39015
H    -0.67939  -3.20670   1.03529
H    -3.35427   0.47514   0.85347
H    -4.90662   1.44705  -1.33975
H    -5.15623   1.81755   0.39170
H    -4.07739   2.84097  -0.60203
