29
Generated by autodE on: 2022-06-09. E = -800.069520 Ha
C     5.36228  -0.11284  -0.02571
N     3.96001   0.21991  -0.16381
C     2.96576  -0.57512   0.28082
O     3.13514  -1.65469   0.86304
C     1.61479  -0.04998   0.00584
O     1.43834   1.06430  -0.71055
C     0.04531   1.33381  -0.82623
O    -0.33638   2.32157  -1.43931
C    -0.58074   0.26689  -0.13394
C    -2.01897   0.05582   0.00070
C    -2.86429   1.18236   0.10064
C    -4.24704   1.03100   0.19600
C    -4.82100  -0.24491   0.19967
C    -3.99580  -1.36852   0.09237
C    -2.61166  -1.22456  -0.01501
N     0.43245  -0.54084   0.36592
C     0.23269  -1.70301   1.23733
H     5.85200  -0.15662  -1.01096
H     5.45059  -1.09183   0.45893
H     5.88587   0.63625   0.58899
H     3.71010   1.08658  -0.63056
H    -2.42530   2.18070   0.10649
H    -4.88100   1.91733   0.27619
H    -5.90411  -0.36230   0.27947
H    -4.43287  -2.36980   0.07829
H    -1.99433  -2.11432  -0.13781
H     1.09506  -1.79617   1.90052
H    -0.68161  -1.54494   1.81804
H     0.13698  -2.61434   0.63313
