18
Generated by autodE on: 2022-06-16. E = -548.458907 Ha
N     4.56831   1.23619  -0.10674
C     3.57967   0.63597  -0.28156
C     2.46854  -0.10602  -0.65267
N     1.43151  -0.46902  -0.14838
C     0.25058  -0.84241   0.22332
C     0.14570  -2.11240   0.87037
N     0.04549  -3.14433   1.39890
C    -0.93757  -0.00179  -0.00555
C    -0.81963   1.24101  -0.65512
C    -1.95244   2.02230  -0.87541
C    -3.21066   1.58066  -0.44952
C    -3.33022   0.34750   0.19887
C    -2.20301  -0.44330   0.42169
H     0.15738   1.59757  -0.98706
H    -1.85152   2.98505  -1.38115
H    -4.09525   2.19765  -0.62184
H    -4.30822  -0.00407   0.53464
H    -2.30627  -1.40561   0.92690
