30
Generated by autodE on: 2022-06-16. E = -705.756951 Ha. Imaginary frequency = -326.1 cm-1
C    -2.80416   0.50926  -1.74344
C    -2.36460  -0.66269  -0.90343
C    -1.84754   0.52171   0.99543
C    -2.84167   1.32687   1.55603
N    -3.76877   1.95901   1.88103
N    -0.70850   0.21076   1.30564
C     0.32928  -0.52132   0.90691
C     0.41876  -1.83850   1.43924
N     0.49747  -2.92475   1.85590
C     1.45781   0.09087   0.20597
C     1.36560   1.41425  -0.26884
C     2.41348   1.97059  -1.00008
C     3.56396   1.22096  -1.27157
C     3.66056  -0.09359  -0.80227
C     2.61976  -0.65719  -0.06556
C    -1.22057  -1.38300  -1.15153
C    -0.23445  -1.04739  -2.22883
H    -3.22583   0.15706  -2.70215
H    -1.96624   1.18055  -1.98469
H    -3.58333   1.10045  -1.23980
H    -3.13791  -1.14610  -0.29721
H     0.47146   2.00576  -0.06433
H     2.33119   2.99795  -1.36181
H     4.38270   1.66057  -1.84534
H     4.55479  -0.68547  -1.00978
H     2.70202  -1.68496   0.29354
H    -1.11226  -2.35262  -0.65844
H     0.72278  -1.56654  -2.07946
H    -0.62176  -1.34700  -3.22105
H    -0.02847   0.03317  -2.28280
