17
Generated by autodE on: 2022-05-29. E = -418.341050 Ha
C     3.06116   0.02554   0.15551
C     1.76277  -0.67148  -0.14818
O     1.74497  -1.84545  -0.55512
C     0.51002   0.05540   0.04229
C     0.37639   1.45945   0.51791
N    -0.55761  -0.68630  -0.26189
C    -1.88023  -0.48869  -0.25547
C    -2.52897   0.69845   0.12197
N    -3.15706   1.64151   0.41645
H     3.08935   0.35825   1.20544
H     3.17629   0.92399  -0.47202
H     3.89511  -0.66217  -0.03373
H     1.35897   1.90510   0.70837
H    -0.20771   1.51256   1.45230
H    -0.14202   2.08682  -0.22682
H    -0.25847  -1.62651  -0.56930
H    -2.49428  -1.33186  -0.57229
