19
Generated by autodE on: 2022-05-29. E = -684.055139 Ha
C     2.53429  -0.21555   0.50254
C     1.28012   0.28563  -0.10861
C     0.02226  -0.17601  -0.17341
C    -0.61690  -1.37174   0.41171
F    -1.32851  -2.06805  -0.50511
F    -1.50164  -1.02805   1.38103
F     0.25320  -2.23524   0.96586
C    -0.80181   0.95309  -0.84696
C    -0.85211   2.12710   0.15599
C     0.40147   2.58857   0.20230
C     1.18614   1.68838  -0.77604
O     0.18155   1.43951  -1.77408
H     3.33249  -0.27231  -0.25677
H     2.41484  -1.19855   0.97277
H     2.88130   0.50572   1.26361
H    -1.73501   0.65907  -1.33902
H    -1.73118   2.42911   0.72413
H     0.83691   3.37248   0.82081
H     2.11427   2.08329  -1.20333
