44
Generated by autodE on: 2022-06-20. E = -1009.844628 Ha
C     0.13949   3.28389   0.97485
N    -0.56012   2.04621   0.68673
C    -0.45982   0.97859   1.48318
O     0.05926   0.97490   2.60005
C    -0.98692  -0.35169   0.89619
C    -1.62354  -1.10615   2.00037
N    -2.20108  -1.70584   2.80848
N    -1.89289  -0.18932  -0.22762
C    -3.23059   0.33826   0.01038
C    -1.76102  -1.30611  -1.16924
C    -1.59927  -0.77079  -2.54299
N    -1.45720  -0.33046  -3.60560
C    -2.94435  -2.20100  -1.17457
N    -3.87528  -2.89075  -1.14698
C    -0.50932  -2.10431  -0.68538
C     0.24200  -1.15435   0.26951
C     1.02997  -1.92731   1.32445
C     1.10040  -0.18998  -0.52037
C     2.32092   0.25254  -0.16180
C     3.07263   1.21963  -0.94332
C     4.28405   1.74388  -0.63615
C     4.93627   2.75146  -1.54027
C     5.07499   1.39504   0.59272
H     1.21264   3.19907   0.73274
H     0.04151   3.53010   2.04047
H    -0.29757   4.09387   0.37760
H    -0.91114   1.88424  -0.25335
H    -3.88008  -0.37347   0.55105
H    -3.69848   0.58420  -0.95369
H    -3.15708   1.26136   0.59884
H     0.10895  -2.43953  -1.52614
H    -0.86027  -2.98599  -0.13498
H     1.86641  -2.45767   0.84809
H     1.43346  -1.25220   2.09069
H     0.39241  -2.66950   1.82389
H     0.66306   0.19936  -1.44574
H     2.77126  -0.10948   0.76498
H     2.59111   1.55765  -1.86848
H     5.12928   3.69461  -0.99853
H     5.92202   2.38837  -1.88205
H     4.32170   2.97655  -2.42413
H     4.58380   0.65929   1.24206
H     6.06484   0.99705   0.30818
H     5.27046   2.30341   1.18926
