23
Generated by autodE on: 2022-06-20. E = -351.521384 Ha
C    -3.68166   0.85050   0.13987
C    -2.58514   0.06907   0.02677
C    -2.70146  -1.41904  -0.18311
C    -1.25305   0.66513   0.10658
C    -0.07837  -0.00611   0.00466
C     1.21747   0.63615   0.08855
C     2.43277   0.04047  -0.01030
C     3.69553   0.84767   0.09779
C     2.64150  -1.43090  -0.23080
H    -3.59338   1.93062   0.29244
H    -4.69016   0.43142   0.08304
H    -2.20833  -1.72806  -1.11975
H    -3.75350  -1.73424  -0.22627
H    -2.20642  -1.97489   0.63052
H    -1.22290   1.75040   0.26166
H    -0.09999  -1.08822  -0.15046
H     1.19856   1.72098   0.24872
H     4.30668   0.74254  -0.81671
H     3.49345   1.91660   0.26027
H     4.32497   0.48072   0.92845
H     3.23745  -1.85999   0.59409
H     1.70795  -2.00250  -0.31149
H     3.22836  -1.59945  -1.15103
