21
Generated by autodE on: 2022-06-20. E = -658.269648 Ha
C     3.73328   0.41978   0.60177
N     2.59104  -0.26142   0.01939
C     1.35484  -0.07833   0.50260
O     1.08590   0.67960   1.43702
C     0.27731  -0.92472  -0.11880
C     0.59065  -2.25820  -0.47259
N     0.90621  -3.34310  -0.76251
N    -1.00004  -0.52340  -0.18640
C    -2.04041  -1.55688  -0.39982
C    -1.39881   0.78296  -0.14294
C    -0.50971   1.84872  -0.41234
N     0.17832   2.74946  -0.68577
C    -2.75243   1.12642   0.08530
N    -3.84986   1.47524   0.27204
H     3.59370   1.51107   0.56814
H     4.63004   0.15461   0.03029
H     3.87617   0.12434   1.65280
H     2.73401  -0.87885  -0.77473
H    -1.84384  -2.40536   0.26360
H    -3.02519  -1.13565  -0.18146
H    -2.00217  -1.87356  -1.45076
