21
Generated by autodE on: 2022-07-27. E = -658.267628 Ha
C     2.65572   3.00909   1.59368
N     1.66807   1.94971   1.51319
C     1.25635   1.47305   0.32661
O     1.66113   1.90157  -0.75570
C     0.28366   0.32715   0.39874
C     0.32149  -0.51580   1.53408
N     0.35640  -1.12869   2.52598
N    -0.56583   0.07101  -0.60959
C    -0.91797   1.14661  -1.56913
C    -1.16343  -1.14079  -0.82072
C    -2.26292  -1.26559  -1.70330
N    -3.16694  -1.43148  -2.42123
C    -0.66671  -2.33712  -0.25432
N    -0.26621  -3.35628   0.14716
H     2.95464   3.13383   2.64101
H     2.25141   3.96435   1.22129
H     3.54206   2.75669   0.99313
H     1.24979   1.60591   2.37220
H    -1.99321   1.07525  -1.76829
H    -0.35567   0.99590  -2.49832
H    -0.69386   2.11951  -1.13205
