44
Generated by autodE on: 2022-06-20. E = -1009.781723 Ha. Imaginary frequency = -426.1 cm-1
C     1.30735   2.66356   1.90582
N     0.41594   1.52516   1.81158
C    -0.41175   1.36243   0.75148
O    -0.40864   2.16496  -0.19233
C    -1.23042   0.12557   0.76540
C    -1.20099  -0.63892   1.95361
N    -1.09801  -1.19467   2.97713
N    -2.16741  -0.16439  -0.21446
C    -2.58715   0.85147  -1.19148
C    -2.33437  -1.49026  -0.59620
C    -3.19206  -1.73872  -1.73083
N    -3.81917  -2.01175  -2.66976
C    -2.52034  -2.52588   0.39864
N    -2.69192  -3.42993   1.10696
C    -0.48065  -2.07929  -1.30604
C     0.54853  -1.46635  -0.54490
C     1.11842  -2.17995   0.64915
C     1.21990  -0.32672  -1.10198
C     2.32682   0.27572  -0.57344
C     2.93410   1.44196  -1.15446
C     3.96697   2.16165  -0.63522
C     4.48055   3.38114  -1.34204
C     4.66115   1.83415   0.65388
H     2.04083   2.47294   2.69858
H     0.75923   3.59038   2.14717
H     1.83881   2.82038   0.95726
H     0.39655   0.86256   2.57881
H    -3.59069   0.59143  -1.54794
H    -1.89301   0.89746  -2.04316
H    -2.62525   1.82573  -0.70362
H    -0.62669  -1.71359  -2.32573
H    -0.64314  -3.15199  -1.17335
H     2.03851  -2.71709   0.35931
H     1.38987  -1.48599   1.45704
H     0.40987  -2.91669   1.04956
H     0.78756   0.09300  -2.01600
H     2.76160  -0.13170   0.34178
H     2.49070   1.79622  -2.09203
H     4.38475   4.27259  -0.69653
H     5.55834   3.27919  -1.56237
H     3.94648   3.57247  -2.28396
H     4.62194   2.70260   1.33403
H     4.23532   0.96979   1.17845
H     5.73210   1.63641   0.47032
