40
Generated by autodE on: 2022-05-29. E = -1068.544359 Ha
C     4.57531   0.89665  -1.29729
N     3.17995   0.96129  -0.90379
C     2.60743  -0.00877  -0.18186
O     3.20341  -0.99488   0.25720
C     1.11471   0.13889   0.06528
N     0.49342   1.42228  -0.17029
C    -0.80778   1.03070   0.41359
C    -1.87288   2.09304   0.59825
C    -1.58086   3.47953   0.12076
O    -2.92263   1.76784   1.12500
C    -0.33778   0.40694   1.75307
O    -0.85217   0.41184   2.83995
O     0.89471  -0.09614   1.50186
C    -1.21125  -0.13329  -0.57303
C    -1.87987   0.42543  -1.82021
C    -2.01242  -1.29050   0.10410
C    -2.19460  -2.39703  -0.92974
C    -0.99304  -2.97730  -1.04471
C    -0.07889  -2.21040  -0.09215
O    -1.00804  -1.86463   0.95232
C     0.20274  -0.82344  -0.76602
C     0.72528  -0.93742  -2.19311
H     4.85817   1.84907  -1.76097
H     5.21441   0.72032  -0.42008
H     4.75048   0.08166  -2.01853
H     2.58950   1.69537  -1.28259
H     0.94601   2.14705   0.39541
H    -2.43696   4.13633   0.31998
H    -0.68014   3.86608   0.62635
H    -1.35691   3.45883  -0.95777
H    -1.28805   1.23894  -2.25984
H    -2.00024  -0.35686  -2.58100
H    -2.88128   0.81287  -1.57849
H    -2.88703  -0.96927   0.67985
H    -3.10657  -2.59628  -1.49151
H    -0.67799  -3.76557  -1.72760
H     0.80396  -2.71982   0.30810
H    -0.00244  -1.43781  -2.84323
H     0.93569   0.05162  -2.62078
H     1.65423  -1.52823  -2.21127
