19
Generated by autodE on: 2022-05-29. E = -386.192010 Ha
C     2.20505  -1.00634  -0.58749
C     0.95430  -0.39503  -0.06499
C     0.54312   0.88089   0.01202
C     1.18536   2.15830  -0.39634
C    -0.92230   0.78734   0.51409
C    -1.75907   0.17485  -0.63309
C    -1.34936  -1.09586  -0.70974
C    -0.27286  -1.22709   0.39271
O    -0.82530  -0.35003   1.39468
H     1.98791  -1.63970  -1.46719
H     2.93878  -0.24420  -0.88957
H     2.67730  -1.66546   0.16174
H     2.21408   2.00400  -0.75470
H     1.21276   2.88206   0.43688
H     0.60899   2.63909  -1.20799
H    -1.33026   1.67036   1.02032
H    -2.46765   0.71800  -1.25810
H    -1.63066  -1.87813  -1.41444
H    -0.07258  -2.23120   0.78525
