21
Generated by autodE on: 2022-05-29. E = -682.313068 Ha
C    -4.45069   0.80197  -0.50308
N    -3.09495   0.61109  -0.02723
C    -2.07559   0.27875  -0.83009
O    -2.12600   0.09520  -2.04828
C    -0.76547   0.12658  -0.14332
N     0.34713  -0.18412  -0.75659
C     1.39745  -0.25200   0.14601
C     2.73872  -0.57707  -0.27608
C     3.80194  -0.62578   0.78894
O     2.97874  -0.80241  -1.46739
C     0.86270   0.04615   1.42577
O     1.27465   0.13666   2.55991
O    -0.55852   0.28356   1.15365
H    -4.46955   0.66196  -1.58978
H    -4.80416   1.81644  -0.26447
H    -5.13250   0.07500  -0.03566
H    -2.90580   0.73017   0.96480
H     0.42750  -0.35337  -1.76149
H     4.76767  -0.87521   0.33067
H     3.87178   0.34365   1.30757
H     3.54456  -1.37690   1.55281
