40
Generated by autodE on: 2022-05-29. E = -1068.488341 Ha. Imaginary frequency = -361.5 cm-1
C     4.58829   0.29411  -1.49294
N     3.29163   0.67938  -0.96584
C     2.59174  -0.14947  -0.17854
O     2.99973  -1.25180   0.19513
C     1.21588   0.30084   0.21416
N     0.66564   1.51833  -0.07102
C    -0.48239   1.60483   0.69154
C    -1.49364   2.61564   0.45456
C    -2.68186   2.64298   1.37443
O    -1.37538   3.38559  -0.50301
C    -0.31750   0.70011   1.79685
O    -0.93507   0.49196   2.82108
O     0.85512  -0.01232   1.49570
C    -1.35048  -0.41674  -0.65204
C    -2.10959   0.42445  -1.61343
C    -2.05347  -1.43667   0.25441
C    -2.35310  -2.63928  -0.67563
C    -1.15765  -3.19251  -0.90959
C    -0.15005  -2.31635  -0.12611
O    -0.95087  -1.95413   1.00542
C    -0.07032  -0.96597  -0.89140
C     0.55567  -0.93468  -2.25994
H     4.94123   1.08100  -2.16964
H     4.51458  -0.65280  -2.04935
H     5.32465   0.16039  -0.68490
H     2.93239   1.60405  -1.17893
H     0.69011   1.92263  -1.00721
H    -2.35952   2.83452   2.41003
H    -3.18633   1.66363   1.37560
H    -3.38018   3.42345   1.04624
H    -2.41582  -0.21162  -2.46738
H    -1.50092   1.23981  -2.02981
H    -3.02207   0.84779  -1.16990
H    -2.86198  -1.07210   0.89784
H    -3.33260  -2.89827  -1.07620
H    -0.89807  -4.03722  -1.54685
H     0.80219  -2.76726   0.17056
H    -0.08496  -1.48729  -2.97003
H     0.65821   0.09108  -2.64320
H     1.54571  -1.41395  -2.26540
