49
Generated by autodE on: 2022-06-21. E = -1112.299171 Ha
C    -2.34432   3.47478   0.79258
N    -1.44020   2.47138   0.27034
C    -0.38871   1.98303   0.94823
O     0.00449   2.41349   2.03649
C     0.26970   0.77257   0.31591
N     1.65283   0.51551   0.72445
C     1.85200  -0.62405  -0.13478
C     3.25119  -1.14781  -0.25207
C     3.83616  -1.41221  -1.49680
C     5.13372  -1.92858  -1.56551
C     5.85272  -2.18640  -0.39556
C     5.26845  -1.92665   0.84887
C     3.97310  -1.41172   0.92176
C     0.75054  -1.58946   0.33487
C    -0.42477  -0.63056   0.70856
C    -0.69467  -0.66610   2.21544
C    -1.66595  -0.86109  -0.11859
C    -2.90284  -0.43653   0.20673
C    -4.05966  -0.57559  -0.65978
C    -5.29583  -0.06551  -0.43962
C    -5.67787   0.74309   0.76871
C    -6.40042  -0.26571  -1.43863
O     1.37713  -0.13699  -1.47730
C     0.37729   0.71538  -1.21445
O    -0.29110   1.24809  -2.07162
H    -2.01645   3.76497   1.79768
H    -3.36846   3.07276   0.85147
H    -2.35793   4.37025   0.15169
H    -1.64454   2.05954  -0.63658
H     2.26966   1.28815   0.46078
H     3.27911  -1.21181  -2.41181
H     5.58321  -2.12911  -2.54085
H     6.86662  -2.58935  -0.45194
H     5.82392  -2.12618   1.76815
H     3.51878  -1.21208   1.89388
H     1.10329  -2.15250   1.20739
H     0.49442  -2.29597  -0.46358
H    -1.46779   0.05289   2.51801
H    -1.03615  -1.67377   2.49608
H     0.21981  -0.43744   2.77716
H    -1.51541  -1.34748  -1.08922
H    -3.05020   0.07077   1.16284
H    -3.89424  -1.13027  -1.59106
H    -4.87511   0.83760   1.51087
H    -6.55646   0.29674   1.26626
H    -5.98275   1.75985   0.46346
H    -6.78723   0.70634  -1.79365
H    -7.25818  -0.78414  -0.97390
H    -6.07157  -0.84923  -2.31099
