26
Generated by autodE on: 2022-06-21. E = -760.761056 Ha
C     5.25802   0.01501   0.22083
N     3.88171   0.33144  -0.08906
C     2.82485  -0.34782   0.41745
O     2.92647  -1.30810   1.20383
C     1.51892   0.11854  -0.01790
N     0.34959  -0.49291   0.41840
C    -0.70608   0.09552  -0.10767
C    -2.10952  -0.21399   0.07060
C    -2.51937  -1.29289   0.87964
C    -3.87569  -1.56664   1.03450
C    -4.83441  -0.77588   0.38959
C    -4.43098   0.29477  -0.41496
C    -3.07657   0.57898  -0.57747
O    -0.30321   1.09656  -0.89242
C     1.14041   1.16411  -0.87575
O     1.71915   2.01634  -1.53457
H     5.77271   0.87607   0.67673
H     5.27883  -0.82063   0.93019
H     5.81601  -0.27854  -0.68328
H     3.68467   1.09899  -0.72638
H     0.34169  -1.28646   1.05874
H    -1.78405  -1.91963   1.38738
H    -4.18772  -2.40355   1.66241
H    -5.89681  -0.99573   0.51499
H    -5.17641   0.91310  -0.91917
H    -2.75923   1.41361  -1.20344
