54
Generated by autodE on: 2022-06-23. E = -1169.149770 Ha
C     5.29055  -0.87278   0.37727
C     4.12057  -0.41653   0.86851
C     3.97829   0.02319   2.30193
C     2.94357  -0.35092  -0.00400
C     1.72519   0.08160   0.36764
C     0.54875   0.10965  -0.54965
C    -0.63890  -0.84159  -0.16467
C    -0.36149  -2.21258  -0.80472
O     0.61114  -2.88866  -0.43648
N    -1.20402  -2.57554  -1.77354
C    -1.04405  -3.79274  -2.54317
C    -0.89221  -0.99253   1.36125
O    -1.82983  -0.38920   1.89961
N    -0.03666  -1.78067   2.01932
C    -0.06481  -1.98274   3.45354
O    -1.78641  -0.25376  -0.73120
C    -1.54478   1.05161  -1.29560
C    -1.62493   0.92772  -2.81407
C    -2.64519   2.00130  -0.80304
O    -2.83798   3.08383  -1.37478
N    -3.33566   1.59093   0.26876
C    -4.26724   2.46959   0.94493
C    -0.13894   1.49497  -0.73804
C     0.65097   2.35795  -1.72372
C    -0.25235   2.26851   0.58784
H     5.37965  -1.19248  -0.66545
H     6.18572  -0.93869   1.00198
H     4.92808  -0.07648   2.84580
H     3.21370  -0.57582   2.82455
H     3.65047   1.07413   2.36428
H     3.08681  -0.70142  -1.03255
H     1.56198   0.42276   1.39127
H     0.88134  -0.21981  -1.54473
H    -1.93217  -1.90793  -2.01240
H    -2.02052  -4.11010  -2.93163
H    -0.63731  -4.58697  -1.90288
H    -0.35735  -3.64783  -3.39335
H     0.63985  -2.28834   1.44801
H    -0.68441  -1.20565   3.91738
H     0.95538  -1.91885   3.85968
H    -0.48305  -2.96854   3.71501
H    -0.81563   0.29084  -3.19556
H    -2.58770   0.46781  -3.08404
H    -1.56605   1.91055  -3.29638
H    -2.97268   0.76696   0.75828
H    -4.83527   1.89203   1.68535
H    -4.97049   2.91261   0.22527
H    -3.75010   3.29560   1.46420
H     1.62994   2.61006  -1.28830
H     0.11560   3.29794  -1.92586
H     0.83134   1.84631  -2.67856
H     0.75064   2.52808   0.95448
H    -0.79462   3.21212   0.43152
H    -0.76671   1.70037   1.37112
