23
Generated by autodE on: 2022-06-23. E = -351.518995 Ha
C    -3.55621   0.11843  -1.28279
C    -2.53830   0.00975  -0.37713
C    -2.81156  -0.21052   1.08970
C    -1.14981   0.10126  -0.82352
C    -0.06828   0.00387  -0.03537
C     1.29243   0.09955  -0.52059
C     2.41738   0.00756   0.25180
C     2.36298  -0.21171   1.74660
C     3.78746   0.12202  -0.35156
H    -3.35325   0.27392  -2.34710
H    -4.60395   0.05430  -0.97573
H    -3.89089  -0.21618   1.29719
H    -2.34408   0.57586   1.70503
H    -2.38845  -1.16999   1.43170
H    -0.99989   0.26233  -1.89763
H    -0.20908  -0.15753   1.03694
H     1.41394   0.25847  -1.59877
H     1.87766  -1.16925   1.99941
H     1.78933   0.58006   2.25593
H     3.37213  -0.22575   2.18325
H     4.39407  -0.77161  -0.11835
H     3.75321   0.24630  -1.44394
H     4.33400   0.97989   0.08102
