37
Generated by autodE on: 2022-06-17. E = -693.464340 Ha
C    -3.13660   1.16591   1.62980
C    -2.29691   0.61469   0.48891
C    -2.27638  -0.91867   0.41399
C    -3.48299  -1.51763  -0.29657
C    -0.92333  -1.28084  -0.25058
C    -0.16708  -2.36012   0.51389
C    -0.16761   0.10680  -0.36021
C    -0.39428   0.61864  -1.74340
N    -0.63821   1.06569  -2.78751
C     1.33484   0.01594  -0.10281
C     2.21584  -0.32927  -1.13682
C     3.58075  -0.49048  -0.88459
C     4.08303  -0.30349   0.40651
C     3.20925   0.04352   1.44121
C     1.84365   0.19928   1.18928
N    -0.87364   0.96183   0.59376
C    -0.57252   2.38094   0.50712
H    -4.16846   0.79201   1.54544
H    -2.73162   0.84561   2.60325
H    -3.18287   2.26514   1.61550
H    -2.70761   1.01239  -0.46650
H    -2.25143  -1.29323   1.45119
H    -4.42275  -1.24351   0.20913
H    -3.54060  -1.16180  -1.33835
H    -3.42393  -2.61756  -0.31686
H    -1.09745  -1.64460  -1.27363
H     0.09050  -2.02994   1.53137
H     0.76119  -2.65608   0.00388
H    -0.80602  -3.25362   0.59987
H     1.83557  -0.47826  -2.14997
H     4.25302  -0.76088  -1.70223
H     5.15053  -0.42512   0.60470
H     3.59127   0.19404   2.45379
H     1.16405   0.46664   1.99772
H    -1.00665   2.90975   1.36673
H     0.51443   2.54002   0.53173
H    -0.96878   2.84881  -0.41782
