25
Generated by autodE on: 2022-06-17. E = -536.091049 Ha
C     3.26092   1.56431   1.03454
C     2.02286   1.06750   0.38422
N     1.72742  -0.20248   0.25193
C     2.73265  -1.19410   0.68609
C     0.48928  -0.68180  -0.22312
C     0.49229  -1.93339  -0.85119
N     0.44829  -2.98461  -1.37713
C    -0.76242   0.07200  -0.13998
C    -1.83807  -0.26972  -0.99724
C    -3.08138   0.35231  -0.89315
C    -3.30539   1.34669   0.06497
C    -2.25570   1.69950   0.92101
C    -1.00880   1.08340   0.82166
H     3.21956   2.65786   1.11797
H     4.16344   1.29822   0.45503
H     3.39553   1.13841   2.04371
H     1.29783   1.77684  -0.01369
H     3.69950  -0.97445   0.21787
H     2.40746  -2.19775   0.40137
H     2.83677  -1.14320   1.77843
H    -1.69043  -1.04095  -1.75619
H    -3.88261   0.05947  -1.57683
H    -4.27644   1.84079   0.14079
H    -2.40694   2.46856   1.68316
H    -0.22603   1.38558   1.51857
