37
Generated by autodE on: 2022-06-17. E = -693.380331 Ha. Imaginary frequency = -347.9 cm-1
C    -3.21867   1.61914   1.10187
C    -2.22761   0.91943   0.22682
C    -2.45767  -1.18237   0.51626
C    -3.61283  -1.43003  -0.42965
C    -1.21036  -1.74667   0.26174
C    -0.26428  -2.14040   1.35129
C    -0.02218   0.40508  -0.44813
C    -0.49323   0.15696  -1.76236
N    -0.87591  -0.06838  -2.84621
C     1.42924   0.27613  -0.23571
C     2.29115   0.20639  -1.35673
C     3.66482   0.02174  -1.21233
C     4.23606  -0.09324   0.05964
C     3.40296  -0.03390   1.18009
C     2.02461   0.13708   1.04047
N    -0.89287   1.13225   0.37053
C    -0.40952   1.83297   1.55881
H    -4.22314   1.22799   0.88754
H    -3.01548   1.47301   2.17276
H    -3.24253   2.70582   0.90343
H    -2.54195   0.77134  -0.80706
H    -2.72748  -1.06927   1.57430
H    -4.40338  -0.66818  -0.33757
H    -3.26853  -1.43598  -1.47586
H    -4.08443  -2.40838  -0.23077
H    -1.04106  -2.19945  -0.72067
H    -0.35572  -1.47843   2.22683
H     0.78648  -2.14343   1.02715
H    -0.49032  -3.16764   1.69883
H     1.87348   0.30520  -2.36035
H     4.29545  -0.02246  -2.10382
H     5.31336  -0.23215   0.17487
H     3.82588  -0.13564   2.18271
H     1.41286   0.13988   1.93831
H    -0.41720   1.18754   2.45034
H     0.60705   2.19726   1.38474
H    -1.05078   2.70119   1.74766
