37
Generated by autodE on: 2022-06-01. E = -867.010325 Ha
C     3.63100  -0.44529   1.49208
N     2.52948   0.13459   0.75814
C     2.02458  -0.38793  -0.36358
O     2.48843  -1.38072  -0.94315
C     0.76661   0.33182  -0.90458
C     0.95741   0.52067  -2.41668
N     0.52980   1.58183  -0.18098
C    -0.91282   1.85964   0.00721
C    -1.48773   2.70756  -1.13956
C    -1.09943   2.61590   1.32479
C    -1.56643   0.45252  -0.01705
C    -1.84643  -0.22514   1.35873
C    -2.59236  -1.51915   1.07482
C    -1.67855  -2.35902   0.57387
C    -0.37839  -1.56763   0.56806
O    -0.52973  -0.71108   1.70394
C    -0.50452  -0.52445  -0.59407
F    -0.93284  -1.17755  -1.74457
H     4.22429   0.34699   1.96971
H     4.27480  -1.00777   0.80300
H     3.27900  -1.13655   2.27713
H     1.97812   0.90695   1.13397
H     1.78960   1.22177  -2.58613
H     1.20211  -0.43257  -2.90072
H     0.05357   0.93155  -2.88316
H     0.99489   2.36294  -0.64182
H    -1.43506   2.17775  -2.10142
H    -0.92880   3.65257  -1.23414
H    -2.54384   2.95274  -0.94621
H    -0.60284   3.59714   1.26046
H    -2.16495   2.79056   1.54017
H    -0.65139   2.06677   2.16463
H    -2.46675   0.45471  -0.64195
H    -2.24904   0.42124   2.14318
H    -3.66884  -1.65813   1.17825
H    -1.81195  -3.35997   0.16508
H     0.55707  -2.13293   0.59853
