24
Generated by autodE on: 2022-07-26. E = -460.109151 Ha
C     1.82076  -0.60002   2.35475
N     0.90916  -0.20023   1.30294
C     0.81232  -0.96470   0.14997
O     1.67524  -1.86448  -0.05079
C    -0.29218  -0.77261  -0.73777
C    -0.63221  -1.82739  -1.74995
N    -1.23007   0.24310  -0.61188
C    -1.10192   1.53521  -0.36898
C    -2.33532   2.34067  -0.13968
C     0.23223   2.17771  -0.36170
H     2.84910  -0.66596   1.97066
H     1.57173  -1.58238   2.79969
H     1.79899   0.15528   3.15272
H     0.06929   0.27991   1.60781
H    -1.72919  -1.94842  -1.82945
H    -0.19976  -2.79850  -1.46905
H    -0.27491  -1.59477  -2.77243
H    -2.19518  -0.05404  -0.79688
H    -3.24583   1.76051  -0.35556
H    -2.32354   3.24853  -0.76483
H    -2.39124   2.68019   0.91041
H     0.73060   2.12001   0.62217
H     0.13707   3.23841  -0.63596
H     0.90107   1.65321  -1.06754
