24
Generated by autodE on: 2022-06-01. E = -460.117434 Ha
C    -3.74046   0.35254  -0.52782
N    -2.56152  -0.21428   0.09001
C    -1.31349   0.28215  -0.19253
O    -1.21283   1.39037  -0.80249
C    -0.15739  -0.45659   0.22704
C    -0.17212  -1.78648   0.91463
N     0.99800   0.22348  -0.08699
C     2.29007   0.08886   0.10418
C     2.91492  -1.02245   0.88525
C     3.19808   1.09476  -0.52960
H    -3.77475   0.19536  -1.62241
H    -4.63398  -0.11024  -0.08745
H    -3.79025   1.43651  -0.34914
H    -2.62931  -1.16751   0.42374
H     0.62887  -2.44435   0.54458
H    -1.11510  -2.31763   0.71447
H    -0.06722  -1.73116   2.01469
H     0.71430   1.06504  -0.61396
H     3.85220  -0.66353   1.33775
H     3.18437  -1.87338   0.23281
H     2.26877  -1.40137   1.68556
H     3.81334   1.60533   0.23251
H     3.90570   0.59990  -1.21967
H     2.64014   1.85441  -1.09723
