13
Generated by autodE on: 2022-06-01. E = -406.788330 Ha
F     1.50797   1.56832  -0.80111
C     0.84878   0.54745  -0.26106
C     1.09350  -0.76037  -0.31249
C    -0.13108  -1.35599   0.42332
C    -1.38106  -1.13142  -0.46451
C    -1.60033   0.18561  -0.42933
C    -0.48289   0.74240   0.48765
O    -0.36029  -0.33845   1.42925
H     1.88236  -1.31432  -0.81635
H    -0.00248  -2.34905   0.86731
H    -1.89918  -1.90953  -1.02430
H    -2.34389   0.78848  -0.94916
H    -0.64299   1.71501   0.96589
