37
Generated by autodE on: 2022-06-01. E = -866.893847 Ha. Imaginary frequency = -217.0 cm-1
C     3.20354   0.43093   1.94272
N     2.53996   0.89008   0.73957
C     2.01579   0.00858  -0.15901
O     2.41451  -1.17914  -0.16245
C     1.07669   0.49273  -1.16665
C     1.35050   0.04069  -2.57783
N     0.35169   1.66256  -1.05490
C    -0.38812   2.21693  -0.08895
C    -1.25920   3.36396  -0.50270
C    -0.13839   2.06189   1.37528
C    -1.87066   0.02679  -0.07301
C    -1.89939  -0.56325   1.35013
C    -2.69512  -1.89066   1.28232
C    -1.90797  -2.73904   0.61063
C    -0.63738  -1.91845   0.28027
O    -0.55413  -1.09631   1.45550
C    -1.05408  -0.83970  -0.72935
F    -1.13066  -1.15564  -2.04069
H     3.54123   1.30196   2.51886
H     4.08017  -0.18889   1.70169
H     2.52994  -0.17142   2.57814
H     2.21846   1.84838   0.72394
H     2.25338   0.51662  -3.00782
H     1.51665  -1.04477  -2.59376
H     0.50029   0.25454  -3.24119
H     0.06762   2.00313  -1.97394
H    -1.42802   3.38259  -1.59045
H    -0.81461   4.33258  -0.20621
H    -2.23662   3.29747   0.00063
H     0.61818   2.79473   1.71984
H    -1.06479   2.29170   1.92031
H     0.19518   1.06045   1.65616
H    -2.65067   0.65183  -0.50168
H    -2.12946   0.11225   2.18072
H    -3.70657  -2.03529   1.66220
H    -2.09607  -3.76499   0.29550
H     0.29627  -2.45251   0.08185
