33
Generated by autodE on: 2022-10-07. E = -1097.642710 Ha
C    -4.52970   1.56663   0.62301
N    -3.36670   1.14676  -0.13000
C    -2.14134   1.61877   0.13002
O    -1.89615   2.48215   0.98636
C    -1.03690   1.01812  -0.74163
N     0.28812   1.53398  -0.40000
C     1.04157   0.48417   0.29076
C     0.68784   0.41076   1.73250
N     0.40241   0.40202   2.85815
C     2.54744   0.84205   0.23061
O     2.89167   2.00727   0.45878
N     3.38883  -0.15070  -0.05885
C     4.82082   0.07401  -0.08944
C     0.55798  -0.79673  -0.44086
C     0.90551  -2.12447   0.26722
O     0.04057  -2.65389   0.99717
O     2.07634  -2.56985   0.06766
C    -0.93458  -0.52037  -0.58956
C    -1.65335  -1.30945  -1.69299
O    -2.84115  -0.94616  -1.95313
O    -1.04583  -2.25726  -2.24138
H    -4.62674   2.66354   0.62122
H    -4.48068   1.23713   1.67500
H    -5.42918   1.13503   0.16550
H    -3.41357   0.36630  -0.80788
H    -1.28121   1.27704  -1.78540
H     0.21296   2.37295   0.17486
H     3.01440  -1.11809  -0.12694
H     5.08756   0.83944  -0.83485
H     5.32230  -0.86541  -0.35385
H     5.19770   0.41407   0.88947
H     1.04231  -0.79684  -1.42650
H    -1.41563  -0.82056   0.35464
