23
Generated by autodE on: 2022-10-13. E = -642.525221 Ha
C    -4.61585   0.95945   0.66436
N    -3.63448   0.51733  -0.30417
C    -2.31401   0.52058  -0.02037
O    -1.86668   0.88041   1.07900
C    -1.45120   0.10870  -1.13199
N    -0.16053  -0.10891  -1.03379
C     0.79364  -0.18895  -0.06969
C     0.60444  -0.21666   1.32256
N     0.63938  -0.31105   2.48841
C     2.13145  -0.42380  -0.65823
O     2.24393  -0.51200  -1.89757
N     3.18197  -0.53334   0.17238
C     4.52233  -0.76542  -0.32907
H    -4.54391   0.37580   1.59574
H    -5.61850   0.82798   0.24052
H    -4.47652   2.02221   0.92248
H    -3.94221   0.22647  -1.22674
H    -1.85814   0.02782  -2.14039
H     0.32817  -0.27631  -1.93459
H     3.03876  -0.43873   1.17248
H     4.85286   0.05393  -0.98735
H     4.57753  -1.70414  -0.90261
H     5.21035  -0.83193   0.52216
