23
Generated by autodE on: 2022-10-07. E = -642.530022 Ha
C    -4.89834   0.33939  -0.63923
N    -3.56715   0.85273  -0.38679
C    -2.49618   0.04104  -0.33470
O    -2.56116  -1.18855  -0.50023
C    -1.20633   0.70259  -0.06799
N    -0.16291  -0.07894  -0.02565
C     1.16436   0.14231   0.18346
C     1.58693   1.46255   0.41163
N     1.85934   2.58518   0.59443
C     1.95426  -1.10000   0.12844
O     1.34853  -2.17112  -0.08855
N     3.29060  -1.08234   0.30636
C     4.16373   0.05016   0.56003
H    -5.60151   1.17960  -0.67896
H    -4.93748  -0.20397  -1.59643
H    -5.21732  -0.35370   0.15593
H    -3.43688   1.84792  -0.23355
H    -1.10070   1.77740   0.08533
H    -0.35041  -1.08937  -0.18175
H     3.71738  -2.00201   0.24505
H     4.13887   0.78478  -0.25866
H     3.91709   0.56195   1.50231
H     5.18974  -0.32928   0.64112
