10
Generated by autodE on: 2022-10-07. E = -455.051706 Ha
O    -2.12965  -1.37330  -0.33107
C    -1.92663  -0.30180   0.30335
O    -2.79354   0.35021   0.95007
C    -0.52638   0.27683   0.30822
C     0.52636  -0.27659  -0.30905
C     1.92673   0.30175  -0.30328
O     2.79436  -0.35167  -0.94760
O     2.12875   1.37459   0.32922
H    -0.38924   1.21093   0.86347
H     0.38930  -1.21071  -0.86426
