18
Generated by autodE on: 2022-06-21. E = -235.968085 Ha
C    -1.52344   1.20962   0.31881
C    -0.67705   0.00234  -0.00658
C    -1.52476  -1.19952  -0.34816
C     0.67703  -0.00226   0.00679
C     1.52301  -1.21345  -0.30468
C     1.52517   1.20329   0.33391
H    -0.95169   2.09421   0.62379
H    -2.14465   1.49132  -0.55059
H    -2.23197   0.97057   1.13199
H    -2.21673  -0.95581  -1.17410
H    -2.16355  -1.47780   0.50954
H    -0.95275  -2.08737  -0.64310
H     2.17124  -1.01723  -1.17781
H     2.20594  -1.42840   0.53667
H     0.94945  -2.12516  -0.51021
H     2.22314   1.41505  -0.49587
H     2.15776   1.00188   1.21724
H     0.95412   2.11835   0.53127
