28
Generated by autodE on: 2022-06-21. E = -782.030665 Ha
C    -2.47905  -3.01929  -0.14938
O    -2.00585  -1.69393  -0.41767
C    -0.84837  -1.34303   0.16293
O    -0.17535  -2.12957   0.81686
C    -0.49014   0.06199  -0.03318
N     0.81097   0.45555   0.02973
C     1.96898  -0.12937  -0.20334
C     2.09692  -1.48663  -0.78554
C     3.12011   0.77352   0.07399
C     4.50824   0.26309  -0.17043
O     2.90594   1.91220   0.48980
C    -1.40701   1.19794  -0.00127
O    -1.00961   2.36103   0.02028
O    -2.70612   0.87854   0.03341
C    -3.63086   1.97113   0.08893
H    -3.44252  -3.10540  -0.66544
H    -2.61361  -3.17406   0.93139
H    -1.77412  -3.76902  -0.53759
H     0.91957   1.46002   0.26002
H     1.31337  -1.64317  -1.54566
H     1.95988  -2.27536  -0.02815
H     3.07821  -1.61583  -1.25651
H     5.23732   1.00738   0.17299
H     4.65778   0.07312  -1.24620
H     4.66868  -0.69325   0.35181
H    -3.51748   2.62245  -0.79003
H    -4.62943   1.51862   0.09630
H    -3.47788   2.56428   1.00248
