28
Generated by autodE on: 2022-07-27. E = -782.022677 Ha
C     3.10858   2.44636  -1.74007
O     2.37150   1.38212  -1.12694
C     1.07558   1.61701  -0.88222
O     0.52950   2.68625  -1.15035
C     0.36976   0.51426  -0.24773
N    -0.91665   0.83146   0.06254
C    -1.99317   0.13805   0.40608
C    -3.20050   0.90677   0.84091
C    -2.06292  -1.31918   0.18578
C    -3.34536  -2.00505   0.57023
O    -1.14604  -1.93728  -0.35600
C     1.04294  -0.69123   0.25189
O     1.95012  -1.28003  -0.30803
O     0.60333  -1.03001   1.47695
C     1.09792  -2.25897   2.01795
H     3.12048   3.33530  -1.09235
H     2.67095   2.71225  -2.71352
H     4.12777   2.06607  -1.87637
H    -1.07461   1.84354  -0.05207
H    -4.07643   0.67445   0.21586
H    -3.01418   1.98945   0.79856
H    -3.46798   0.64981   1.87929
H    -4.18885  -1.61764  -0.02360
H    -3.24377  -3.08375   0.39693
H    -3.58295  -1.81446   1.62879
H     2.18034  -2.19631   2.20318
H     0.56394  -2.41068   2.96360
H     0.89273  -3.09268   1.33122
