51
Generated by autodE on: 2022-06-05. E = -1282.919839 Ha
C     3.88012  -1.34254  -1.98378
O     3.06619  -0.80644  -0.92682
C     2.02557  -0.06027  -1.28309
O     1.76909   0.22934  -2.43155
C     1.19736   0.43985  -0.06677
C     2.23307   0.78631   1.01365
O     2.74562   1.88328   1.09521
O     2.54869  -0.23810   1.79453
C     3.56515  -0.01181   2.78385
N     0.45093   1.63469  -0.41636
C    -0.74856   1.20673  -1.12556
C    -1.80950   2.26562  -1.34546
C    -1.37193   3.70060  -1.36676
O    -2.95572   1.92061  -1.59624
C    -1.23155  -0.05963  -0.38729
C    -1.76510  -1.03709  -1.43058
O    -1.28195  -1.17729  -2.53895
O    -2.81032  -1.75253  -1.01757
C    -3.34423  -2.71451  -1.93829
C    -2.21506   0.14701   0.80492
C    -1.80176   1.35393   1.67055
C    -0.51778   0.85461   2.38944
C    -0.34602  -0.57777   1.84298
C    -1.81816  -1.01219   1.73582
C     0.09281  -0.61261   0.34052
C     0.48610  -2.04349  -0.03752
H     3.27972  -2.00728  -2.62098
H     4.67969  -1.90571  -1.49011
H     4.30072  -0.52880  -2.59072
H     3.67394  -0.95849   3.32450
H     4.51210   0.26348   2.29802
H     3.25627   0.78856   3.47088
H     1.01756   2.27421  -0.97070
H    -0.50264   0.90054  -2.15833
H    -2.22084   4.35639  -1.59865
H    -0.92795   3.97577  -0.39764
H    -0.57944   3.82772  -2.12384
H    -3.69535  -2.21557  -2.85277
H    -4.18260  -3.19386  -1.42013
H    -2.57967  -3.46026  -2.19882
H    -3.25962   0.17968   0.48032
H    -2.60678   1.56456   2.39021
H    -1.63247   2.27501   1.10168
H    -0.66391   0.80267   3.47874
H     0.33807   1.51466   2.21254
H     0.29768  -1.21203   2.46257
H    -1.96633  -2.00661   1.29993
H    -2.33740  -0.97018   2.70522
H     1.40606  -2.33066   0.48783
H     0.65430  -2.16011  -1.11648
H    -0.30415  -2.75014   0.24782
