25
Generated by autodE on: 2022-06-05. E = -742.696162 Ha
C    -2.47815   3.02154  -0.16700
O    -2.06846   1.64956  -0.13432
C    -0.75045   1.42517  -0.04811
O     0.06682   2.33887   0.00234
C    -0.37424   0.01863  -0.02194
N     0.93895  -0.31186   0.06002
C     2.07045   0.34699   0.13469
C     3.28484  -0.47970   0.20676
C     4.58931   0.25212   0.30084
O     3.19945  -1.70810   0.18981
C    -1.22382  -1.17659  -0.07481
O    -0.74478  -2.30756  -0.04364
O    -2.53420  -0.95074  -0.15725
C    -3.37978  -2.10835  -0.20859
H    -3.57184   3.00524  -0.24154
H    -2.16948   3.54281   0.75109
H    -2.04734   3.53656  -1.03818
H     1.07167  -1.34211   0.06411
H     2.08043   1.43219   0.14210
H     4.59205   0.89190   1.19904
H     5.42497  -0.45781   0.34187
H     4.70366   0.92283  -0.56686
H    -3.25938  -2.71643   0.69964
H    -4.40493  -1.72607  -0.27518
H    -3.14470  -2.72055  -1.09128
