27
Generated by autodE on: 2022-07-27. E = -740.778099 Ha
C    -2.66557  -0.24533   2.64302
O    -2.52870   0.43249   1.39156
C    -1.79475  -0.19827   0.45278
O    -1.27061  -1.28968   0.64340
N    -1.81757   0.53247  -0.70418
N    -0.88750   0.25943  -1.60690
C    -1.38699   0.33900  -2.99264
C     0.39057  -0.02884  -1.35940
C     1.19240  -0.47839  -2.44877
N     1.89760  -0.85981  -3.29337
C     1.06006   0.12391  -0.05546
C     2.04286  -0.80423   0.32980
C     2.71881  -0.64962   1.54047
C     2.43152   0.43697   2.37089
C     1.46546   1.37355   1.98322
C     0.77682   1.22001   0.78230
H    -3.16896  -1.21500   2.51285
H    -1.68076  -0.40766   3.10642
H    -3.27462   0.40996   3.27747
H    -0.57123   0.54282  -3.69282
H    -2.12291   1.14956  -3.02008
H    -1.88046  -0.61221  -3.23662
H     2.27080  -1.65336  -0.31754
H     3.47342  -1.38202   1.83474
H     2.96121   0.55818   3.31834
H     1.24643   2.23174   2.62209
H     0.02472   1.95443   0.49304
