27
Generated by autodE on: 2022-05-31. E = -740.777734 Ha
C     4.78089   0.10753  -0.32707
O     3.70757   0.99398  -0.00446
C     2.46304   0.54971  -0.28654
O     2.25715  -0.55161  -0.79144
N     1.56336   1.53317   0.00544
N     0.27086   1.21826  -0.07506
C    -0.54738   2.31126  -0.62952
C    -0.28350   0.08965   0.35951
C     0.48965  -0.75335   1.21291
N     1.04187  -1.45113   1.96240
C    -1.66696  -0.32854   0.07801
C    -2.21719  -0.20889  -1.21275
C    -3.51923  -0.64143  -1.45880
C    -4.28249  -1.20247  -0.42953
C    -3.73468  -1.34187   0.85023
C    -2.43214  -0.91654   1.10401
H     4.83206  -0.07154  -1.41185
H     5.69769   0.60613   0.01084
H     4.66404  -0.85578   0.19159
H    -0.11568   3.24105  -0.24271
H    -1.59115   2.21164  -0.31944
H    -0.46401   2.30332  -1.72424
H    -1.61952   0.19933  -2.02828
H    -3.93623  -0.54906  -2.46381
H    -5.30221  -1.54025  -0.62733
H    -4.32482  -1.78493   1.65508
H    -2.00643  -1.02778   2.10328
