38
Generated by autodE on: 2022-06-10. E = -860.040745 Ha
C     0.63075   1.90325  -3.19768
N    -0.03460   1.17197  -2.14194
C     0.67441   0.45787  -1.21807
O     1.92112   0.58900  -1.17706
C    -0.07779  -0.43010  -0.34564
C    -1.48710  -0.78600  -0.53561
C    -2.35528  -0.80660   0.58122
C    -3.69765  -1.16221   0.45010
C    -4.22429  -1.48675  -0.80492
C    -3.38395  -1.46229  -1.92457
C    -2.03561  -1.12915  -1.79332
N     0.54830  -0.92522   0.79672
C     0.34407  -2.34835   1.13774
C     1.39090  -0.21874   1.53738
C     2.26712  -0.88612   2.55031
C     1.29130   1.27926   1.51474
O     0.18277   1.83275   1.59467
N     2.43843   1.98495   1.53050
C     3.77142   1.51014   1.20904
H     1.14552   1.23870  -3.91461
H    -0.11512   2.49209  -3.74733
H     1.38395   2.59015  -2.78309
H    -1.03283   1.02302  -2.21937
H    -1.96306  -0.51650   1.55845
H    -4.34235  -1.16936   1.33286
H    -5.27757  -1.75668  -0.91029
H    -3.77845  -1.72541  -2.90938
H    -1.39026  -1.15595  -2.67335
H    -0.02355  -2.45418   2.16624
H    -0.37226  -2.78347   0.43725
H     1.30155  -2.87886   1.04079
H     1.66589  -1.44391   3.28757
H     2.95935  -1.60837   2.08470
H     2.85886  -0.14791   3.10264
H     2.30682   2.99004   1.61662
H     4.40843   1.42347   2.10398
H     4.24928   2.21492   0.51326
H     3.71806   0.53648   0.71052
