60
Generated by autodE on: 2022-07-02. E = -1919.114838 Ha. Imaginary frequency = -224.5 cm-1
C    -7.14882  -9.26317  -0.71433
N    -5.79545  -9.09213  -0.21782
C    -5.50901  -8.12105   0.65936
O    -6.33888  -7.30094   1.05226
C    -4.06069  -8.13022   1.13446
C    -3.30089  -9.39737   1.31274
O    -3.30268  -7.08738   1.01233
C    -3.61857  -5.76851   1.01401
C    -2.48943  -4.91936   1.11634
N    -1.59991  -4.16913   1.20223
C    -4.71912  -5.21227   0.18724
O    -5.23771  -4.13461   0.40397
O    -4.98196  -5.97127  -0.87626
C    -6.10333  -5.58885  -1.68886
C    -4.33242  -6.23628   3.46982
C    -4.74523  -7.39847   3.46880
C    -5.30281  -8.45980   4.36291
C    -4.22920  -9.41905   4.67694
N    -3.37242 -10.15174   4.94477
C    -6.48003  -9.26107   3.73996
F    -7.50808  -8.45922   3.46325
F    -6.90593 -10.20473   4.59324
F    -6.13260  -9.89813   2.61154
C    -5.85305  -7.80088   5.67946
C    -4.82934  -7.36388   6.72833
C    -3.73571  -6.36693   6.32613
C    -4.23306  -5.08328   5.63553
C    -3.84218  -5.00462   4.10803
C    -2.30340  -4.98722   4.06883
O    -1.63862  -5.95929   3.77949
O    -1.79747  -3.84186   4.49829
C    -0.36350  -3.74326   4.54161
C    -4.51284  -3.75385   3.51186
O    -3.95516  -2.73779   3.17063
O    -5.83014  -3.93531   3.46131
C    -6.62411  -2.83299   2.99135
H    -7.17506 -10.13974  -1.37210
H    -7.47687  -8.37832  -1.28126
H    -7.84814  -9.41536   0.12254
H    -5.08052  -9.75434  -0.50133
H    -2.97869  -9.78231   0.32691
H    -3.91665 -10.16738   1.79014
H    -2.40285  -9.20458   1.91410
H    -6.18137  -6.35391  -2.46922
H    -7.01793  -5.56729  -1.08083
H    -5.92954  -4.60093  -2.13786
H    -6.52078  -8.52895   6.15996
H    -6.47318  -6.95627   5.34996
H    -4.34182  -8.25825   7.14910
H    -5.42230  -6.92830   7.54944
H    -3.19448  -6.08842   7.24276
H    -2.99215  -6.87690   5.69583
H    -5.32601  -4.99700   5.69390
H    -3.81113  -4.18657   6.10985
H     0.04824  -3.86342   3.53007
H     0.05227  -4.51180   5.20809
H    -0.14469  -2.74142   4.92744
H    -6.51744  -1.97575   3.67136
H    -7.65946  -3.19169   2.99018
H    -6.31577  -2.54974   1.97773
