27
Generated by autodE on: 2022-05-26. E = -1026.525761 Ha
C    -4.20455   2.48533  -0.20897
N    -2.89997   1.87066  -0.03179
C    -2.64645   0.63708  -0.47556
O    -3.44822  -0.07674  -1.07336
C    -1.25939   0.08192  -0.16063
N    -0.89033  -1.08598  -0.90401
C     0.32684  -1.34916  -0.10135
C     1.05924  -2.56112  -0.42073
N     1.58871  -3.56176  -0.66412
C    -0.27945  -1.30763   1.34672
O     0.03410  -1.92663   2.32205
O    -1.26649  -0.38804   1.28019
C     1.04887   0.00385  -0.22107
C     2.49999   0.18766  -0.09039
O     3.26556  -0.72338   0.15934
O     2.86174   1.45485  -0.27832
C     4.26540   1.74782  -0.17254
C     0.03440   0.88292  -0.27215
F     0.06095   2.19077  -0.27818
H    -4.97301   1.96225   0.38180
H    -4.50334   2.45488  -1.26689
H    -4.14912   3.52946   0.11940
H    -2.18253   2.37950   0.47624
H    -1.60199  -1.81493  -0.78365
H     4.63014   1.50720   0.83616
H     4.83181   1.17075  -0.91731
H     4.36168   2.82159  -0.36773
