17
Generated by autodE on: 2022-07-26. E = -621.861775 Ha
C    -3.79935   1.86487   0.20499
N    -2.53401   1.19634   0.43591
C    -1.66152   0.92226  -0.54204
O    -1.78975   1.17980  -1.74075
C    -0.42115   0.23285  -0.09643
N     0.54107  -0.12473  -0.90937
C     1.55554  -0.74922  -0.19385
C     2.73413  -1.25713  -0.75187
N     3.72475  -1.68836  -1.19471
C     1.16284  -0.76705   1.17153
O     1.62396  -1.16496   2.21490
O    -0.13579  -0.10662   1.14873
H    -3.84349   2.81324   0.76183
H    -3.90199   2.07328  -0.86594
H    -4.63678   1.22907   0.52993
H    -2.29374   0.92525   1.38632
H     0.51527   0.04812  -1.91664
