17
Generated by autodE on: 2022-05-26. E = -621.856148 Ha
C    -3.13297   0.57064   1.14851
N    -2.94960  -0.60185   0.30176
C    -1.83200  -1.06037  -0.27596
O    -1.77256  -2.07613  -0.97696
C    -0.55784  -0.31349  -0.07737
N     0.56589  -0.72526  -0.61493
C     1.59688   0.14141  -0.28616
C     2.92875  -0.00503  -0.69122
N     4.04554  -0.10606  -1.01631
C     1.04296   1.16989   0.52335
O     1.44607   2.16195   1.08326
O    -0.36025   0.79920   0.61037
H    -2.51949   0.51338   2.05828
H    -2.88976   1.49970   0.61439
H    -4.18854   0.60389   1.44185
H    -3.76876  -1.17391   0.10693
H     0.62837  -1.56998  -1.18769
