10
Generated by autodE on: 2022-05-26. E = -404.601305 Ha
C    -2.83876   0.57894  -0.02188
O    -1.43635   0.64946   0.28670
C    -0.64938  -0.23921  -0.32433
O    -1.04271  -1.07999  -1.10741
C     0.73630  -0.07924   0.06291
C     1.90435   0.00732   0.35358
F     3.13081   0.10214   0.66095
H    -3.24521  -0.40129   0.26573
H    -3.31369   1.37487   0.56264
H    -3.00311   0.74378  -1.09644
