68
Generated by autodE on: 2022-06-28. E = -1689.555588 Ha
C     0.93679   5.21299   0.42849
O    -0.26517   4.64806  -0.11132
C    -0.40046   3.29693   0.02027
C    -1.27021   2.73196   0.90523
O    -2.07856   3.30300   1.79134
C    -2.13059   4.72229   1.99513
C    -1.24474   1.24073   1.05829
O    -1.32999   0.78715   2.18129
C    -1.07743   0.43394  -0.23500
C    -2.29593   0.74639  -1.12070
C    -0.78528  -1.09018   0.05914
C    -1.08110  -2.06308  -1.11164
C    -2.39121  -2.30493  -1.55745
C    -2.64623  -3.23318  -2.56906
C    -1.59979  -3.95958  -3.14507
C    -0.29718  -3.74773  -2.69014
C    -0.04341  -2.81155  -1.68311
C    -1.48984  -1.73676   1.26563
C    -2.86225  -1.57932   1.51257
C    -3.48355  -2.26577   2.55644
C    -2.74762  -3.13210   3.37213
C    -1.38358  -3.30211   3.12697
C    -0.76176  -2.61429   2.07954
O     0.62450  -1.09773   0.31638
C     1.29888   0.11332   0.00773
C     1.69669   0.83292   1.32773
C     1.84418  -0.01903   2.55205
O     1.93339   2.02736   1.32053
C     2.65762  -0.21725  -0.61641
C     3.45169   0.78656  -1.19304
C     4.71302   0.48186  -1.70767
C     5.20968  -0.82382  -1.63706
C     4.43654  -1.82064  -1.03788
C     3.17202  -1.51838  -0.52374
C     0.27714   0.92053  -0.88348
C     0.40021   0.51970  -2.36216
C     0.43513   2.46049  -0.85597
O     1.19810   3.01220  -1.64202
H     0.84609   6.30103   0.31291
H     1.82435   4.85842  -0.11419
H     1.03554   4.96459   1.49756
H    -2.88029   4.87070   2.78212
H    -2.44119   5.23998   1.07899
H    -1.15738   5.10232   2.33529
H    -2.31538   1.81149  -1.38346
H    -3.23581   0.51500  -0.60210
H    -2.26472   0.17091  -2.05055
H    -3.23447  -1.78030  -1.11365
H    -3.67455  -3.39273  -2.90205
H    -1.80052  -4.68849  -3.93367
H     0.53462  -4.31190  -3.11885
H     0.97736  -2.65347  -1.34654
H    -3.45651  -0.89580   0.90728
H    -4.55073  -2.11565   2.73695
H    -3.23483  -3.66814   4.18993
H    -0.79318  -3.97693   3.75175
H     0.30169  -2.75975   1.89564
H     2.41970  -0.92831   2.32570
H     0.84813  -0.34273   2.88805
H     2.33425   0.56177   3.34362
H     3.08017   1.80822  -1.25434
H     5.31162   1.27266  -2.16573
H     6.19782  -1.05955  -2.03902
H     4.81764  -2.84168  -0.96216
H     2.58642  -2.29781  -0.03964
H     0.34138  -0.56262  -2.49803
H    -0.39457   0.99210  -2.95380
H     1.35809   0.86562  -2.76176
