42
Generated by autodE on: 2022-06-28. E = -1000.049432 Ha
C    -1.18459   3.49450  -1.07634
C    -2.00595   2.21781  -1.06352
O    -3.17235   2.22208  -1.51395
C    -1.39386   1.03177  -0.54669
O    -0.12725   1.25228  -0.09376
C     0.89122   0.49111   0.20257
C     1.97247   1.19212   0.87791
C     3.28700   0.67283   0.88400
C     4.31607   1.36571   1.51770
C     4.06119   2.58647   2.15311
C     2.76332   3.11284   2.15118
C     1.72713   2.42575   1.52537
C     0.93446  -0.92870  -0.14014
C     1.39741  -1.87166   0.79906
C     1.37940  -3.23223   0.49703
C     0.91580  -3.66876  -0.74862
C     0.47923  -2.73738  -1.69817
C     0.47962  -1.37828  -1.39677
C    -2.04942  -0.26657  -0.42119
C    -2.86565  -0.76418  -1.45917
C    -3.46184  -2.02112  -1.35785
C    -3.25803  -2.81281  -0.22240
C    -2.46950  -2.32270   0.82523
C    -1.87798  -1.06486   0.73122
H    -1.83293   4.32257  -1.39239
H    -0.34011   3.40982  -1.77937
H    -0.75636   3.71757  -0.08698
H     3.50449  -0.26254   0.36793
H     5.32808   0.95496   1.50719
H     4.87097   3.12575   2.64961
H     2.55706   4.06128   2.65235
H     0.71327   2.82664   1.54772
H     1.73399  -1.53481   1.78059
H     1.71891  -3.95644   1.24061
H     0.89567  -4.73586  -0.98117
H     0.12609  -3.07454  -2.67488
H     0.13001  -0.65742  -2.13609
H    -3.00890  -0.16397  -2.35708
H    -4.07769  -2.39319  -2.18038
H    -3.71323  -3.80337  -0.15173
H    -2.31269  -2.92620   1.72238
H    -1.27212  -0.69565   1.55994
