26
Generated by autodE on: 2022-06-28. E = -689.460839 Ha
C    -2.87854   1.76824   0.34927
O    -1.48266   1.92974   0.07627
C    -0.62778   0.90740   0.06202
C    -0.85094  -0.40791   0.34136
O    -2.06153  -0.88748   0.75279
C    -2.77865  -1.68209  -0.19766
C     0.26170  -1.38057   0.29099
O     0.05341  -2.55457   0.59254
C     1.62768  -0.92753  -0.11088
C     2.70898  -1.95920  -0.17836
C     1.86344   0.38013  -0.38188
C     3.22042   0.88298  -0.76736
C     0.75781   1.36905  -0.30493
O     0.94019   2.55513  -0.54281
H    -3.30604   2.77576   0.26940
H    -3.04067   1.37327   1.36034
H    -3.35140   1.10948  -0.39311
H    -3.71991  -1.97475   0.28626
H    -2.21395  -2.58472  -0.47364
H    -3.00153  -1.09581  -1.10467
H     3.16160  -1.98319  -1.18336
H     3.52268  -1.71686   0.52554
H     2.32140  -2.95622   0.06093
H     3.57370   0.38531  -1.68562
H     3.20988   1.96611  -0.93626
H     3.95869   0.65417   0.01870
