26
Generated by autodE on: 2022-06-19. E = -689.460820 Ha
C    -2.55830   0.78220  -1.85635
O    -2.10587   0.95480  -0.50891
C    -0.87288   0.44548  -0.21849
C    -0.68856  -0.64395   0.58012
O    -1.59714  -1.42767   1.16063
C    -3.00113  -1.29648   0.91539
C     0.70721  -1.08490   0.93260
O     0.85231  -2.04855   1.67218
C     1.87089  -0.35637   0.36553
C     3.23942  -0.85144   0.71796
C     1.67585   0.71618  -0.44103
C     2.81725   1.47863  -1.03580
C     0.29177   1.19131  -0.74272
O     0.10883   2.20628  -1.41273
H    -3.56024   1.22836  -1.90892
H    -1.89420   1.28983  -2.57091
H    -2.62229  -0.28916  -2.10956
H    -3.22647  -1.42466  -0.15320
H    -3.47091  -2.10630   1.48786
H    -3.37603  -0.32619   1.26510
H     3.18744  -1.71978   1.38519
H     3.79655  -1.13549  -0.19013
H     3.82576  -0.05919   1.21182
H     3.46456   1.89086  -0.24380
H     2.46014   2.30329  -1.66349
H     3.45250   0.81485  -1.64516
