41
Generated by autodE on: 2022-06-19. E = -977.295396 Ha. Imaginary frequency = -255.4 cm-1
C    -1.23619   3.29211  -0.08297
O    -1.36497   1.87582  -0.27725
C    -0.34070   1.02113  -0.31433
C     1.06102   1.39529  -0.02276
O     1.40990   2.56016   0.18725
C     2.08055   0.30299  -0.12928
C     3.44307   0.60333   0.41448
C     1.79069  -0.89046  -0.70674
C     2.81455  -1.97774  -0.84086
C     0.43214  -1.15520  -1.24397
O     0.19957  -2.12683  -1.97446
C    -0.64571  -0.25262  -0.83794
O    -1.88482  -0.46164  -1.39892
C    -2.02634   0.03814  -2.73083
C    -1.00782  -1.43232   1.16975
C    -2.44697  -1.03828   1.30333
C    -0.72848  -2.87074   0.89894
O     0.00634  -0.83919   1.77042
N     0.17980   0.50246   2.01070
C    -0.93882   1.18599   2.63428
H    -2.26398   3.67361  -0.13232
H    -0.79501   3.52878   0.89198
H    -0.63246   3.73998  -0.88266
H     3.50255   1.63307   0.78589
H     4.22117   0.46000  -0.35292
H     3.68431  -0.08698   1.24037
H     2.40476  -2.83635  -1.38641
H     3.71293  -1.62134  -1.37063
H     3.14925  -2.31850   0.15343
H    -1.84770   1.12491  -2.76842
H    -3.06025  -0.16884  -3.03929
H    -1.33367  -0.47101  -3.41962
H    -2.74986  -1.20297   2.35120
H    -2.66515  -0.00703   1.02334
H    -3.04554  -1.70409   0.67071
H     0.34717  -3.08371   0.93634
H    -1.25614  -3.49139   1.64403
H    -1.12393  -3.14039  -0.09163
H    -0.51966   2.11805   3.04100
H    -1.32999   0.59771   3.48106
H    -1.78376   1.46017   1.98230
