35
Generated by autodE on: 2022-10-26. E = -767.258928 Ha
C    -0.56414   1.52814  -1.00938
C    -0.93531   0.15731  -0.57606
C    -2.23946  -0.06375   0.07199
C    -2.32359  -0.77676   1.28532
C    -3.55280  -0.95011   1.92052
C    -4.71819  -0.42099   1.35623
C    -4.64479   0.29424   0.15595
C    -3.41632   0.48282  -0.47650
N    -0.06552  -0.83980  -0.71549
C    -0.49229  -2.24951  -0.67218
C     1.31060  -0.60762  -0.91702
C     1.95922  -1.39745  -1.87818
N     2.52864  -2.04412  -2.67717
C     2.08070   0.31827  -0.09639
C     3.38741   0.70174  -0.48935
C     4.17100   1.53106   0.30963
C     3.68446   2.02064   1.52865
C     2.39590   1.65556   1.93148
C     1.60404   0.82471   1.13745
H    -0.08482   2.09247  -0.18832
H    -1.46312   2.08711  -1.30036
H     0.15793   1.49269  -1.83924
H    -1.41714  -1.17710   1.74199
H    -3.59942  -1.49624   2.86535
H    -5.68076  -0.56062   1.85346
H    -5.55092   0.70916  -0.29116
H    -3.37202   1.03665  -1.41594
H    -0.19515  -2.70968   0.27921
H    -1.57385  -2.32811  -0.81577
H     0.01347  -2.77703  -1.49144
H     3.78776   0.33749  -1.43817
H     5.17427   1.80430  -0.02806
H     4.29794   2.67603   2.15070
H     1.99591   2.01970   2.88148
H     0.61184   0.54560   1.49641
