35
Generated by autodE on: 2022-10-22. E = -767.257944 Ha
C     2.22168  -1.50253   2.11515
C     1.20475  -1.14284   1.07673
C     1.59921  -0.29519  -0.05852
C     2.44320   0.81212   0.14317
C     2.83502   1.61445  -0.93105
C     2.40529   1.31310  -2.22467
C     1.57831   0.20152  -2.43920
C     1.16793  -0.58710  -1.36902
N    -0.03395  -1.60633   1.19344
C    -0.30683  -2.66507   2.18282
C    -1.14871  -1.08152   0.50195
C    -2.08596  -2.00761   0.02815
N    -2.89235  -2.76462  -0.37175
C    -1.31941   0.33558   0.20907
C    -0.69689   1.35631   0.96772
C    -0.91974   2.70227   0.68515
C    -1.76295   3.08741  -0.36473
C    -2.38769   2.09240  -1.12435
C    -2.16687   0.74310  -0.84901
H     2.48995  -2.57033   2.04253
H     1.84636  -1.33039   3.13609
H     3.14114  -0.92512   1.97159
H     2.77588   1.06434   1.15140
H     3.47724   2.47972  -0.75230
H     2.71192   1.93839  -3.06627
H     1.24911  -0.04810  -3.45039
H     0.51287  -1.44078  -1.54667
H    -0.33872  -2.22675   3.19056
H    -1.28020  -3.11310   1.96085
H     0.46720  -3.43963   2.14339
H    -0.03848   1.09455   1.79715
H    -0.42427   3.46261   1.29465
H    -1.92631   4.14410  -0.58765
H    -3.04649   2.36770  -1.95223
H    -2.65315  -0.01623  -1.46550
