52
Generated by autodE on: 2022-10-22. E = -1648.958036 Ha. Imaginary frequency = -271.5 cm-1
C    -2.81013   2.42315   0.02061
O    -1.45826   2.57152  -0.41106
C    -0.54667   1.72524   0.13548
C    -0.59424   1.35526   1.63382
C    -0.17079   2.62914   2.39585
C     1.13451   2.76804   2.13859
C     1.49186   1.57856   1.22222
O     0.60028   0.56659   1.73083
C     0.81884   1.84196  -0.13153
Cl    1.45596   3.11823  -1.13609
C     1.46610  -0.21525  -1.38989
C     1.52831   0.38396  -2.67926
N     1.68907   0.84890  -3.73901
C     2.78800  -0.57112  -0.83011
C     3.96543  -0.33556  -1.57723
C     5.22825  -0.59952  -1.04844
C     5.36499  -1.11742   0.24288
C     4.21328  -1.35332   0.99963
C     2.94897  -1.07861   0.48001
N     0.30047  -0.89147  -1.01655
C     0.43856  -2.27752  -0.51605
C    -0.94701  -0.33329  -1.12912
C    -1.27373   0.51138  -2.33490
C    -2.08714  -1.04309  -0.49592
C    -2.04130  -1.45946   0.85208
C    -3.14204  -2.06148   1.45876
C    -4.32095  -2.27318   0.73584
C    -4.38221  -1.87660  -0.60313
C    -3.28323  -1.26673  -1.20982
H    -2.92720   2.73502   1.07137
H    -3.15821   1.38614  -0.09103
H    -3.41608   3.08131  -0.61547
H    -1.47433   0.82010   2.00068
H    -0.84181   3.27065   2.96605
H     1.82288   3.55749   2.43785
H     2.53368   1.24788   1.21319
H     3.89229   0.05956  -2.59056
H     6.11362  -0.40351  -1.65824
H     6.35407  -1.32884   0.65528
H     4.29593  -1.74374   2.01693
H     2.08190  -1.22892   1.11617
H     1.36143  -2.70060  -0.92406
H     0.46650  -2.35222   0.57498
H    -0.40664  -2.86711  -0.88774
H    -0.57965   1.33862  -2.48903
H    -2.27543   0.94091  -2.24143
H    -1.25562  -0.11866  -3.24169
H    -1.13958  -1.29585   1.43810
H    -3.07964  -2.36196   2.50730
H    -5.18392  -2.74360   1.21261
H    -5.29266  -2.04385  -1.18351
H    -3.35715  -0.97103  -2.25628
