54
Generated by autodE on: 2022-06-13. E = -1452.171604 Ha
C     0.03271   4.84321   1.16613
O     0.56494   3.57694   0.74007
C    -0.31886   2.65054   0.39165
O    -1.52042   2.80057   0.42543
C     0.35696   1.37007  -0.03719
N     1.56398   1.40298  -0.44207
C     2.02236   0.06272  -0.79669
C     2.31569   0.08700  -2.23776
N     2.62422   0.16427  -3.35296
C     3.45677  -0.21900  -0.17670
C     4.20158   0.95876   0.35900
O     3.91913  -1.33343  -0.26851
C     0.88139  -0.94332  -0.33107
C     0.55286  -2.17146  -1.20596
C     1.63642  -2.84592  -1.99521
O    -0.57727  -2.61945  -1.18209
C     1.31699  -1.46299   1.08873
C     0.92924  -2.83587   1.52948
O     1.99336  -0.72857   1.78066
C    -0.38296   0.03249  -0.08426
C    -1.10513  -0.29486   1.23249
C    -0.78676   0.37399   2.42285
C    -1.42016   0.04491   3.62424
C    -2.38040  -0.96793   3.65694
C    -2.69628  -1.65192   2.47887
C    -2.06460  -1.31902   1.28051
C    -1.36658   0.15077  -1.27674
C    -2.71547   0.47600  -1.05862
C    -3.59593   0.65762  -2.12696
C    -3.14897   0.53017  -3.44416
C    -1.80621   0.22696  -3.67743
C    -0.93038   0.04489  -2.60548
H    -0.61138   4.70606   2.04633
H     0.90046   5.46242   1.41845
H    -0.54626   5.30451   0.35362
H     3.61214   1.47046   1.13122
H     5.16722   0.62421   0.75828
H     4.36146   1.68166  -0.45748
H     1.64175  -2.42420  -3.01331
H     1.39474  -3.91411  -2.07614
H     2.62991  -2.69526  -1.55810
H     1.11356  -2.93691   2.60593
H    -0.10817  -3.08413   1.28189
H     1.57647  -3.54618   0.98438
H    -0.01338   1.14379   2.44083
H    -1.15393   0.58303   4.53663
H    -2.87628  -1.22709   4.59518
H    -3.43821  -2.45361   2.49117
H    -2.30699  -1.86816   0.37232
H    -3.09054   0.60282  -0.04605
H    -4.64021   0.90430  -1.92187
H    -3.83906   0.66898  -4.27946
H    -1.42955   0.12637  -4.69768
H     0.10372  -0.18999  -2.84329
