36
Generated by autodE on: 2022-06-13. E = -846.394756 Ha
C    -2.26197   0.88494   2.07897
C    -2.40362   0.59426   0.60792
O    -3.41181   0.92186  -0.00553
C    -1.35981  -0.24677  -0.07353
C    -1.96120  -1.38828  -0.84618
C    -1.56922  -1.58115  -2.28760
O    -2.84822  -2.06243  -0.33759
C    -0.01786  -0.00284   0.00061
C     0.97452  -0.99063  -0.48125
C     2.08949  -0.57368  -1.23313
C     3.00049  -1.50850  -1.72359
C     2.82554  -2.87086  -1.45268
C     1.73648  -3.29319  -0.68475
C     0.81688  -2.36068  -0.20183
C     0.50862   1.26094   0.56468
C    -0.08886   2.49386   0.24382
C     0.39130   3.68051   0.80044
C     1.47380   3.65258   1.68451
C     2.08533   2.43306   1.99881
C     1.61461   1.24741   1.43579
H    -2.80621   1.80262   2.34124
H    -1.22323   0.93271   2.42391
H    -2.74640   0.03677   2.59615
H    -2.25972  -0.94455  -2.87029
H    -1.72723  -2.62543  -2.59019
H    -0.54812  -1.25657  -2.51626
H     2.22520   0.48736  -1.45032
H     3.85176  -1.17443  -2.32109
H     3.54350  -3.60093  -1.83343
H     1.60534  -4.35281  -0.45417
H    -0.01775  -2.69285   0.41810
H    -0.91760   2.52389  -0.46579
H    -0.07779   4.63110   0.53690
H     1.84788   4.58091   2.12231
H     2.93321   2.40745   2.68710
H     2.08988   0.29735   1.68664
