54
Generated by autodE on: 2022-06-13. E = -1452.105083 Ha. Imaginary frequency = -400.8 cm-1
C    -0.02266   4.19913   1.62378
O     0.55552   2.93766   1.22118
C     0.16624   2.44998   0.06019
O    -0.59413   2.95164  -0.73094
C     0.80787   1.11226  -0.16569
N     1.96097   0.94233  -0.52473
C     2.88350   0.10740  -0.94540
C     2.94395  -0.26563  -2.31771
N     3.02709  -0.56031  -3.44020
C     4.08748  -0.20755  -0.10206
C     4.22822   0.53446   1.18666
O     4.87562  -1.04160  -0.51533
C     0.62847  -1.54941  -0.37083
C     0.64115  -2.47758  -1.53085
C    -0.67476  -2.96434  -2.10999
O     1.68599  -2.96155  -1.96049
C     1.53522  -1.80735   0.76540
C     2.41554  -3.03505   0.78498
O     1.55287  -1.03395   1.73222
C    -0.35807  -0.50520  -0.21114
C    -1.12387  -0.47567   1.09945
C    -1.76257   0.67402   1.59143
C    -2.52916   0.63048   2.75765
C    -2.69857  -0.57296   3.44623
C    -2.11240  -1.73690   2.94032
C    -1.34113  -1.68803   1.77935
C    -1.17422  -0.11406  -1.41930
C    -2.57971  -0.07118  -1.36234
C    -3.33026   0.24031  -2.49572
C    -2.69503   0.53535  -3.70604
C    -1.29935   0.51110  -3.77365
C    -0.54920   0.19156  -2.64338
H    -1.11032   4.08626   1.73430
H     0.20372   4.97206   0.87740
H     0.44042   4.44037   2.58610
H     3.36452   0.30082   1.82913
H     5.16015   0.23626   1.68211
H     4.21991   1.62008   1.00135
H    -0.58322  -4.05403  -2.23428
H    -0.83388  -2.53161  -3.10891
H    -1.54426  -2.73521  -1.48340
H     1.82889  -3.94304   0.57836
H     3.19560  -2.97482   0.01536
H     2.87945  -3.10844   1.77706
H    -1.72334   1.61348   1.04591
H    -3.00675   1.54412   3.11847
H    -3.30010  -0.60789   4.35736
H    -2.26106  -2.69315   3.44723
H    -0.91167  -2.60948   1.38420
H    -3.09481  -0.31583  -0.43476
H    -4.42061   0.24881  -2.43234
H    -3.28511   0.78490  -4.59071
H    -0.78767   0.74406  -4.70982
H     0.53492   0.17667  -2.73139
