15
Generated by autodE on: 2022-06-16. E = -400.017508 Ha
C    -1.99015   0.65864   0.22283
C    -0.55666   0.14548   0.14229
C    -0.48029  -1.24297   0.66744
N    -0.42692  -2.33105   1.06610
C     0.49561   1.03363   0.82360
C     1.72308   0.67408   0.01144
O     1.24035   0.56321  -1.32761
O    -0.16279   0.11837  -1.23769
H    -2.32095   0.66772   1.27135
H    -2.66466   0.01294  -0.35704
H    -2.02487   1.68058  -0.17916
H     0.59709   0.82100   1.89515
H     0.21375   2.08553   0.67823
H     2.48797   1.46413  -0.00266
H     2.17296  -0.27766   0.34464
