15
Generated by autodE on: 2022-06-16. E = -399.929419 Ha. Imaginary frequency = -261.0 cm-1
C    -2.08387   0.73693   0.18635
C    -0.79118   0.07882  -0.14155
C    -0.43987  -1.18184   0.46049
N    -0.24778  -2.20665   0.97339
C     0.81248   1.20190   1.19038
C     1.92237   0.88632   0.46646
O     0.97936  -0.18665  -1.47864
O    -0.22922   0.38282  -1.27002
H    -2.18447   0.84407   1.27508
H    -2.91821   0.11109  -0.17424
H    -2.12966   1.72247  -0.29479
H     0.53641   0.62914   2.07950
H     0.30191   2.15707   1.04338
H     2.32371   1.56521  -0.28750
H     2.51847   0.00041   0.69816
