35
Generated by autodE on: 2022-06-17. E = -729.334635 Ha
C    -3.33893   0.44698  -0.99524
C    -2.39695  -0.37677  -0.12281
C    -3.19870  -1.11955   0.94416
O    -1.81814  -1.36197  -1.02524
N    -0.44682  -1.52881  -0.62510
C     0.00927  -0.14321  -0.47151
C     0.00514   0.52678  -1.79530
N     0.01701   0.99828  -2.85608
C     1.40940  -0.05568   0.12060
C     1.97126  -1.14779   0.79493
C     3.23684  -1.03931   1.37784
C     3.95049   0.15972   1.29904
C     3.39448   1.25073   0.62410
C     2.13367   1.14219   0.03343
C    -1.14847   0.43356   0.44571
C    -0.84107   0.09857   1.91139
C    -1.28987   1.95344   0.33937
H    -3.88158   1.18872  -0.39265
H    -4.07917  -0.22514  -1.45549
H    -2.80286   0.96633  -1.79989
H    -3.63158  -0.42071   1.67434
H    -4.02448  -1.66163   0.45932
H    -2.57926  -1.84842   1.48204
H    -0.01235  -1.96220  -1.44433
H     1.41411  -2.08129   0.86578
H     3.66534  -1.89925   1.89790
H     4.93849   0.24306   1.75769
H     3.94541   2.19120   0.55160
H     1.71359   1.99718  -0.49998
H    -0.63772  -0.96736   2.07052
H     0.03473   0.66766   2.25179
H    -1.68990   0.38673   2.54605
H    -0.38563   2.44135   0.73274
H    -1.44531   2.30689  -0.68722
H    -2.14072   2.29085   0.94917
