18
Generated by autodE on: 2022-06-17. E = -235.968071 Ha
C     1.50655  -0.86250  -0.93380
C     0.66924  -0.08712   0.05484
C     1.50727   0.47125   1.17985
C    -0.66926   0.08703  -0.05476
C    -1.50653   0.86257   0.93377
C    -1.50728  -0.47125  -1.17985
H     2.29639  -0.21633  -1.35740
H     2.03324  -1.68973  -0.42486
H     0.93986  -1.29017  -1.76945
H     2.03149  -0.34477   1.70905
H     2.29914   1.12886   0.77828
H     0.94189   1.04432   1.92438
H    -2.29723   0.21684   1.35642
H    -0.93998   1.28921   1.77003
H    -2.03217   1.69055   0.42497
H    -2.03149   0.34481  -1.70900
H    -2.29912  -1.12894  -0.77838
H    -0.94190  -1.04421  -1.92447
