17
Generated by autodE on: 2022-06-17. E = -493.336789 Ha
N     2.15671  -2.05814   1.23396
C     1.68224  -1.12805   0.68514
C     1.06312  -0.01990   0.03450
N     1.88462   0.87615  -0.48925
O     3.14010   0.86574  -0.43006
C    -0.39854   0.09943  -0.05032
C    -1.18993  -1.06418  -0.03136
C    -2.57788  -0.97114  -0.12875
C    -3.19335   0.27904  -0.24707
C    -2.41255   1.43980  -0.25588
C    -1.02478   1.35676  -0.14788
H     1.43894   1.66059  -0.99746
H    -0.71320  -2.04324   0.05037
H    -3.18137  -1.88126  -0.11649
H    -4.28062   0.35005  -0.32275
H    -2.88781   2.42022  -0.33087
H    -0.43516   2.27529  -0.11723
