36
Generated by autodE on: 2022-07-27. E = -788.363116 Ha
C    -1.90712   1.95320   0.86807
C    -1.96008   0.45473   1.15724
O    -2.81087   0.07434   2.00289
C    -1.12813  -0.45109   0.43600
C    -1.20038  -1.91043   0.53066
C    -0.05304  -2.69762   0.26640
C    -0.09091  -4.09049   0.34040
C    -1.27220  -4.75018   0.69404
C    -2.41570  -3.98942   0.96705
C    -2.38627  -2.59771   0.88502
N    -0.10071   0.07802  -0.38979
C    -0.10829  -0.29113  -1.81202
C     0.73986   0.95062   0.12586
C     1.63865   1.88181  -0.52479
C     1.58259   2.29057  -1.87799
C     2.50285   3.21262  -2.37079
C     3.49562   3.74373  -1.53918
C     3.55487   3.36124  -0.19454
C     2.63153   2.45028   0.30922
H    -2.94361   2.32113   0.90667
H    -1.46971   2.22216  -0.10269
H    -1.34588   2.48166   1.65564
H     0.88907  -2.20659   0.01290
H     0.81587  -4.66394   0.13050
H    -1.30183  -5.84037   0.75861
H    -3.34917  -4.48864   1.24083
H    -3.28579  -2.02427   1.09883
H     0.91348  -0.34787  -2.20601
H    -0.59542  -1.26575  -1.91159
H    -0.69361   0.44695  -2.37893
H     0.74733   0.96802   1.21706
H     0.80934   1.91615  -2.54387
H     2.44181   3.52432  -3.41567
H     4.21541   4.46256  -1.93711
H     4.31889   3.78089   0.46330
H     2.66915   2.16032   1.36167
