36
Generated by autodE on: 2022-06-11. E = -788.358307 Ha
C    -3.07690  -2.00949  -0.50498
C    -1.58794  -1.75580  -0.30415
O    -0.81925  -2.75627  -0.38559
C    -1.17372  -0.42267  -0.04297
C    -2.17926   0.67530   0.02628
C    -3.08317   0.76012   1.10012
C    -4.04702   1.77038   1.15162
C    -4.12005   2.72320   0.13057
C    -3.22648   2.65456  -0.94363
C    -2.27066   1.63746  -0.99662
N     0.18096  -0.06739   0.11586
C     0.44566   1.31202   0.57913
C     1.19470  -0.90429  -0.05351
C     2.62128  -0.63248   0.00036
C     3.25554   0.58445  -0.34384
C     4.64523   0.69655  -0.30253
C     5.43878  -0.39106   0.07668
C     4.82965  -1.61076   0.39417
C     3.44375  -1.73299   0.34397
H    -3.60154  -2.05841   0.46300
H    -3.56915  -1.23104  -1.10446
H    -3.19036  -2.98265  -1.00322
H    -3.02117   0.02422   1.90509
H    -4.73980   1.81738   1.99550
H    -4.87099   3.51595   0.17094
H    -3.28013   3.39178  -1.74861
H    -1.58387   1.58089  -1.84468
H     0.48525   2.00896  -0.26653
H    -0.35830   1.61774   1.25386
H     1.39362   1.33236   1.12288
H     0.88353  -1.93034  -0.24319
H     2.67165   1.43817  -0.68333
H     5.11372   1.64392  -0.57942
H     6.52618  -0.29294   0.11067
H     5.43956  -2.47181   0.67718
H     2.97174  -2.68893   0.58292
