33
Generated by autodE on: 2022-06-11. E = -598.941508 Ha
C    -1.80422   3.84262   0.59858
N    -1.09540   2.64859   0.18781
C     0.24487   2.54291   0.17161
O     1.01182   3.45713   0.49806
C     0.81587   1.19161  -0.25493
C    -0.13552   0.18477  -0.71958
C    -0.60158  -0.92704  -0.86666
C    -0.79281  -2.37474  -0.70961
C    -1.93390  -2.65341   0.28638
C    -1.08799  -3.07533  -2.04483
C     0.57521  -2.87560  -0.14145
C     1.20124  -2.07685   1.02202
C     2.13076  -0.87331   0.68706
C     1.60116   0.55470   0.93007
H    -2.51259   4.16381  -0.18023
H    -2.36720   3.67308   1.53054
H    -1.07596   4.64448   0.76919
H    -1.63412   1.83277  -0.08945
H     1.53267   1.41805  -1.06321
H    -1.73540  -2.19241   1.26526
H    -2.88777  -2.25413  -0.09123
H    -2.04690  -3.73963   0.42988
H    -2.05515  -2.74685  -2.45602
H    -0.30471  -2.85905  -2.78732
H    -1.13085  -4.16588  -1.89618
H     0.41667  -3.91878   0.18082
H     1.29704  -2.91409  -0.97451
H     0.41253  -1.75019   1.72061
H     1.80755  -2.79815   1.59245
H     3.02633  -0.97378   1.32042
H     2.49625  -0.95807  -0.35107
H     0.94345   0.55484   1.81588
H     2.44018   1.22953   1.15711
