69
Generated by autodE on: 2022-06-11. E = -1387.294136 Ha. Imaginary frequency = -280.8 cm-1
C     9.96829  -0.96511   5.53122
N     8.65714  -0.57773   5.05091
C     7.55572  -1.28197   5.37102
O     7.58507  -2.21689   6.18253
C     6.25805  -0.80959   4.70667
C     5.58461   0.30683   5.54239
C     5.19158  -0.00042   6.99093
C     3.84422  -0.69513   7.24747
C     3.78255  -2.22873   7.16868
C     3.33343  -2.90818   5.83947
C     3.16662  -4.40773   6.15116
C     1.96884  -2.35452   5.38167
C     4.38523  -2.64110   4.81330
C     5.37287  -1.96695   4.44468
C     6.36236  -3.04814   2.82996
C     7.49764  -2.29387   2.27868
C     7.38135  -1.08650   1.55957
C     8.52068  -0.37278   1.18527
C     9.79526  -0.84907   1.51132
C     9.92615  -2.04573   2.22275
C     8.78915  -2.75076   2.61308
N     5.25229  -3.42028   2.14779
C     4.96202  -2.83866   0.83460
C     4.34454  -4.24398   2.81519
C     2.91570  -4.13560   2.60684
C     2.28982  -2.88954   2.00185
O     2.14087  -5.03363   3.00048
C     4.88533  -5.53065   3.36797
C     4.60728  -6.71620   2.65918
C     5.11682  -7.94674   3.07689
C     5.92911  -8.02195   4.21383
C     6.21696  -6.85634   4.92710
C     5.69434  -5.62706   4.51216
H    10.01730  -0.90858   6.62936
H    10.71756  -0.28496   5.10835
H    10.21707  -1.99626   5.23129
H     8.60474   0.04195   4.24825
H     6.53841  -0.33617   3.75514
H     6.28963   1.15386   5.54482
H     4.69599   0.64509   4.98381
H     5.99845  -0.56127   7.49244
H     5.14649   0.97357   7.50596
H     3.55057  -0.42613   8.27529
H     3.07291  -0.24364   6.60096
H     3.06678  -2.57986   7.93095
H     4.76270  -2.64908   7.44893
H     2.34717  -4.53485   6.87646
H     4.07952  -4.82669   6.59691
H     2.92216  -4.98397   5.25212
H     2.04800  -1.33566   4.97700
H     1.52761  -2.99854   4.61157
H     1.27447  -2.33311   6.23712
H     6.66812  -3.75534   3.59544
H     6.39855  -0.67854   1.32579
H     8.41135   0.56803   0.64107
H    10.68304  -0.28448   1.21725
H    10.91626  -2.42128   2.48955
H     8.89044  -3.66814   3.19735
H     5.89042  -2.81318   0.25007
H     4.25079  -3.48013   0.30792
H     4.56226  -1.81836   0.90080
H     1.26655  -2.80717   2.38994
H     2.21674  -2.98878   0.90814
H     2.84016  -1.96917   2.23107
H     3.98183  -6.66687   1.76584
H     4.88469  -8.85038   2.50757
H     6.33209  -8.98342   4.54124
H     6.84474  -6.89921   5.82053
H     5.89916  -4.73578   5.10510
