39
Generated by autodE on: 2022-06-18. E = -993.211174 Ha. Imaginary frequency = -257.8 cm-1
C     2.37866  -3.98217  -0.18560
C     2.46130  -2.69822   0.23194
C     3.74855  -1.91920   0.17559
C     1.25818  -2.03249   0.70735
C     1.18313  -0.74397   1.14564
C    -0.07077  -0.13630   1.47753
C    -0.94286   0.30833  -1.07017
C    -1.55530  -0.99477  -1.31658
O    -2.71828  -1.25277  -0.98046
N    -0.71397  -1.89203  -1.87868
C    -1.06066  -3.29617  -1.96195
O    -1.65609   1.30008  -0.46481
C    -0.75194   2.16751  -0.00265
C    -1.17070   3.46457   0.40463
N    -1.48307   4.50713   0.81191
O     0.42046   2.02603  -0.64206
C     0.38923   0.74811  -1.27034
O     1.37499   0.26990  -1.79458
C    -0.27105   1.14331   2.00649
C     0.89503   2.00506   2.41998
C    -1.58678   1.40865   2.69764
H     3.25201  -4.51291  -0.57433
H     1.43125  -4.52766  -0.14671
H     4.57021  -2.53405  -0.21711
H     4.03561  -1.55119   1.17433
H     3.63273  -1.03269  -0.46937
H     0.33695  -2.62323   0.67812
H     2.08687  -0.13356   1.19914
H    -0.95036  -0.78299   1.40708
H     0.25297  -1.61374  -2.03436
H    -1.33204  -3.70009  -0.97280
H    -1.91463  -3.45664  -2.63843
H    -0.19615  -3.84923  -2.34770
H     1.72968   1.95583   1.70777
H     1.27123   1.67187   3.40302
H     0.59114   3.05667   2.52944
H    -1.81858   2.48242   2.75241
H    -1.53214   1.04093   3.73750
H    -2.41610   0.88519   2.19935
