45
Generated by autodE on: 2022-06-19. E = -1034.110319 Ha
C     3.97696  -1.85615   1.07680
N     2.91931  -0.91189   0.79348
C     2.91415  -0.12542  -0.29129
O     3.85571  -0.04962  -1.09758
C     1.63699   0.67881  -0.51109
N     0.79249   0.75293   0.67689
C    -0.57678   0.38648   0.37397
C    -1.51521   1.38601   1.07447
O    -1.10373   2.34555   1.69396
O    -2.80070   1.11801   0.90349
C    -3.73978   2.04704   1.47147
C    -0.84481  -1.03053   0.95088
O    -0.01255  -1.66521   1.56781
O    -2.07105  -1.48129   0.72740
C    -2.38315  -2.79586   1.21428
C    -0.69201   0.51471  -1.21453
C    -1.80232  -0.29580  -1.88232
C    -0.93347   2.00042  -1.54795
C     0.75747   0.07373  -1.65719
C     1.18743   0.64167  -3.01470
C     0.88870  -1.45852  -1.74525
H     3.82288  -2.81699   0.55478
H     4.94130  -1.44400   0.75012
H     4.02148  -2.05298   2.15670
H     2.03905  -0.94568   1.31040
H     1.97086   1.68180  -0.81915
H     0.81392   1.67281   1.10790
H    -3.60283   3.04279   1.02651
H    -4.73295   1.65289   1.22956
H    -3.60482   2.10675   2.56039
H    -3.42960  -2.97491   0.94298
H    -2.25666  -2.84008   2.30506
H    -1.73145  -3.54215   0.73783
H    -2.78909   0.04987  -1.54376
H    -1.73652  -1.37073  -1.68543
H    -1.74818  -0.14339  -2.97168
H    -1.92581   2.32021  -1.19901
H    -0.91911   2.15151  -2.63496
H    -0.18119   2.66436  -1.09949
H     2.19918   0.28304  -3.25426
H     1.21902   1.73910  -3.02179
H     0.50965   0.30546  -3.81510
H     0.26426  -1.84927  -2.56015
H     0.61073  -1.98068  -0.82198
H     1.92820  -1.73088  -1.97794
