18
Generated by autodE on: 2022-06-19. E = -235.968069 Ha
C    -1.45607  -1.08433   0.76770
C    -0.66881   0.01978   0.10382
C    -1.55510   1.17354  -0.29978
C     0.66884  -0.01976  -0.10378
C     1.45608   1.08438  -0.76760
C     1.55507  -1.17362   0.29966
H    -0.85305  -1.94560   1.07912
H    -2.24617  -1.45345   0.08929
H    -1.98014  -0.69851   1.66062
H    -1.02750   1.99776  -0.79442
H    -2.35131   0.82507  -0.98193
H    -2.07359   1.58675   0.58413
H     2.24631   1.45332  -0.08923
H     1.98000   0.69871  -1.66067
H     0.85309   1.94577  -1.07877
H     2.35161  -0.82526   0.98147
H     2.07315  -1.58700  -0.58442
H     1.02749  -1.99770   0.79455
