27
Generated by autodE on: 2022-06-19. E = -798.098045 Ha
C     5.31436   0.79100  -0.17564
N     3.90165   1.10354  -0.22871
C     2.92868   0.19171  -0.05315
O     3.12060  -1.01513   0.16532
C     1.55326   0.72980  -0.14082
N     0.60447  -0.14824   0.02311
C    -0.76308  -0.11461   0.02522
C    -1.43340   1.15067  -0.19884
O    -0.83470   2.20776  -0.38871
O    -2.77573   1.08849  -0.18496
C    -3.47123   2.32086  -0.39715
C    -1.32272  -1.44097   0.26857
O    -0.60519  -2.42636   0.43995
O    -2.65621  -1.51447   0.29377
C    -3.21917  -2.81114   0.52863
H     5.80489   1.32157   0.65578
H     5.43426  -0.28814  -0.02675
H     5.81359   1.08021  -1.11332
H     3.62589   2.06751  -0.39481
H     1.31894   1.77408  -0.32758
H     0.96249  -1.10784   0.19338
H    -3.22388   2.74683  -1.38085
H    -4.53873   2.07409  -0.35258
H    -3.22087   3.05205   0.38579
H    -4.30652  -2.67145   0.51427
H    -2.91789  -3.51514  -0.26074
H    -2.90105  -3.20291   1.50578
