27
Generated by autodE on: 2022-07-27. E = -798.085754 Ha
C     4.19130  -1.91286  -0.79019
N     3.58760  -0.63789  -0.45741
C     2.29988  -0.37312  -0.74112
O     1.54788  -1.18153  -1.29965
C     1.87129   1.01045  -0.42823
N     0.63153   1.36715  -0.22292
C    -0.52205   0.66916   0.04197
C    -1.69420   1.51965  -0.09242
O    -1.61084   2.69403  -0.45738
O    -2.86547   0.95119   0.22311
C    -4.02610   1.78306   0.11552
C    -0.43580  -0.62703   0.70225
O     0.55392  -1.02536   1.30488
O    -1.56148  -1.35494   0.62333
C    -1.57106  -2.59153   1.34472
H     4.28137  -2.04520  -1.88106
H     5.19193  -1.96059  -0.34469
H     3.58387  -2.74230  -0.39764
H     4.15655   0.08753  -0.03151
H     2.59166   1.82602  -0.51769
H     0.43788   2.37666  -0.29212
H    -4.87624   1.14866   0.39322
H    -4.14972   2.15000  -0.91399
H    -3.95708   2.64134   0.80008
H    -0.78754  -3.26592   0.96908
H    -1.41459  -2.41925   2.41994
H    -2.56082  -3.03178   1.17469
