45
Generated by autodE on: 2022-06-19. E = -1034.033743 Ha. Imaginary frequency = -342.4 cm-1
C     4.26217  -2.06054  -0.07262
N     3.59292  -0.77582  -0.09919
C     2.25683  -0.67709   0.06847
O     1.56559  -1.65905   0.36563
C     1.71879   0.69375  -0.18704
N     0.71775   1.24432   0.54114
C    -0.50506   0.64141   0.77814
C    -1.60609   1.58842   0.75577
O    -1.47383   2.77180   0.44128
O    -2.80207   1.06370   1.07575
C    -3.92697   1.94555   1.00626
C    -0.55185  -0.54229   1.66155
O     0.21420  -0.72414   2.59419
O    -1.55714  -1.38364   1.38395
C    -1.70219  -2.51123   2.25362
C    -0.54839  -0.08658  -1.76132
C    -0.86183  -1.55431  -1.69642
C    -1.73726   0.78282  -2.07026
C     0.76043   0.36067  -2.08513
C     0.91037   1.77497  -2.61908
C     1.71113  -0.62265  -2.74856
H     3.95885  -2.69227  -0.92492
H     5.34609  -1.89963  -0.12011
H     4.02283  -2.60359   0.85343
H     4.10922   0.03853  -0.41454
H     2.47898   1.42447  -0.47220
H     0.59889   2.24410   0.36511
H    -3.80932   2.78597   1.70611
H    -4.79911   1.34298   1.28680
H    -4.05332   2.33732  -0.01359
H    -2.56808  -3.07158   1.88158
H    -1.87833  -2.18628   3.28967
H    -0.80099  -3.14078   2.21984
H    -1.81353  -1.73145  -1.17799
H    -0.07722  -2.13300  -1.19710
H    -0.97096  -1.94837  -2.72624
H    -2.63864   0.44047  -1.54344
H    -1.94653   0.71263  -3.15654
H    -1.58228   1.84409  -1.84752
H     1.97183   2.03443  -2.74717
H     0.45498   2.52476  -1.95624
H     0.42408   1.87352  -3.60606
H     2.74487  -0.24842  -2.73955
H     1.70136  -1.61797  -2.28936
H     1.41653  -0.74767  -3.80646
