53
Generated by autodE on: 2022-06-02. E = -1297.392378 Ha
C   -12.36545  -7.78019  -5.89817
N   -13.70623  -8.31976  -5.79725
C   -14.33934  -8.85455  -6.85176
O   -13.82690  -8.97706  -7.97116
C   -15.75127  -9.29941  -6.58511
N   -16.46659  -8.71456  -5.67552
C   -17.78493  -9.32007  -5.71690
C   -18.86401  -8.26708  -6.12350
O   -20.04937  -8.57681  -6.23161
N   -18.39568  -7.03724  -6.36111
C   -19.27035  -5.95491  -6.76926
C   -18.18764  -9.90579  -4.33668
O   -19.26711 -10.47787  -4.18392
N   -17.28328  -9.75473  -3.36482
C   -17.50298 -10.28589  -2.03333
C   -17.70976 -10.40342  -6.79082
C   -16.45315 -10.36502  -7.31069
C   -15.91870 -11.14281  -8.47407
C   -16.35437 -10.52249  -9.82665
C   -17.78310  -9.96934  -9.88074
C   -18.93072 -10.97710  -9.72595
C   -18.91006 -11.93624  -8.52907
C   -18.87758 -11.28734  -7.12247
C   -18.95765 -12.41710  -6.10389
O   -17.99751 -12.95104  -5.58383
O   -20.21727 -12.81114  -5.89979
C   -20.41342 -13.87768  -4.96109
H   -11.71015  -8.48675  -6.42779
H   -11.96935  -7.61289  -4.88927
H   -12.35058  -6.82474  -6.44894
H   -14.23819  -8.19368  -4.94142
H   -17.40822  -6.87047  -6.19096
H   -19.84663  -6.23571  -7.66364
H   -18.65856  -5.07505  -7.00142
H   -19.98412  -5.69195  -5.97205
H   -16.43659  -9.23803  -3.58446
H   -17.67522 -11.37271  -2.06896
H   -18.37764  -9.81753  -1.55509
H   -16.61491 -10.08570  -1.42225
H   -14.82282 -11.16286  -8.43210
H   -16.25701 -12.18236  -8.39662
H   -16.21117 -11.27749 -10.61818
H   -15.66463  -9.69299 -10.05190
H   -17.88923  -9.17018  -9.12935
H   -17.91403  -9.46985 -10.85550
H   -19.87810 -10.41128  -9.70333
H   -18.97256 -11.60639 -10.63196
H   -19.83283 -12.53571  -8.56645
H   -18.08786 -12.65711  -8.62340
H   -19.78964 -10.68762  -7.00287
H   -19.86910 -14.77950  -5.27602
H   -20.06734 -13.56887  -3.96376
H   -21.49204 -14.07231  -4.94356
