27
Generated by autodE on: 2022-06-02. E = -757.115829 Ha
C     3.57026  -0.80002   1.50073
N     2.95911  -2.08416   1.19987
C     1.92849  -2.28003   0.36797
O     1.40990  -3.36165   0.08467
C     1.39577  -1.07823  -0.29932
N     0.46443  -0.33902  -0.25183
C    -0.50055   0.53534  -0.25978
C    -0.17066   1.85301   0.35375
O     0.94881   2.05560   0.85365
N    -1.14258   2.77867   0.32901
C    -0.94742   4.09643   0.89360
C    -1.80887   0.16038  -0.85092
O    -2.73896   0.98371  -0.94475
N    -1.94681  -1.10915  -1.28262
C    -3.18868  -1.57113  -1.87170
H     3.82491  -0.75617   2.56832
H     2.86696   0.01743   1.29110
H     4.48703  -0.63717   0.91208
H     3.36063  -2.92738   1.60586
H    -2.01886   2.50565  -0.12155
H    -0.13551   4.64017   0.38323
H    -0.69047   4.04117   1.96384
H    -1.87599   4.67021   0.78466
H    -1.19892  -1.78008  -1.14388
H    -3.46677  -0.95718  -2.74213
H    -3.05735  -2.60948  -2.19882
H    -4.01980  -1.52966  -1.14896
