53
Generated by autodE on: 2022-06-02. E = -1297.251748 Ha. Imaginary frequency = -265.5 cm-1
C   -12.06210  -7.88837  -6.13933
N   -13.31711  -8.55494  -5.83734
C   -14.48774  -8.04969  -6.23388
O   -14.64369  -7.02412  -6.90421
C   -15.69359  -8.83318  -5.89975
N   -16.62425  -8.75280  -5.13930
C   -17.89492  -9.01198  -4.89947
C   -18.91491  -8.23155  -5.65901
O   -20.10880  -8.55806  -5.68210
N   -18.46345  -7.15176  -6.33923
C   -19.33224  -6.43600  -7.25206
C   -18.25001  -9.90029  -3.76116
O   -19.42344 -10.12382  -3.43619
N   -17.20649 -10.45823  -3.10506
C   -17.41713 -11.47968  -2.09919
C   -17.70334 -10.55759  -7.11928
C   -16.63359 -10.14870  -7.57459
C   -15.64852 -10.03820  -8.66415
C   -16.32874 -10.29850 -10.02121
C   -17.14171 -11.60094 -10.14653
C   -18.63819 -11.57955  -9.73508
C   -19.02925 -12.20980  -8.38723
C   -18.99187 -11.25077  -7.16132
C   -19.26042 -12.07287  -5.91363
O   -18.40634 -12.64619  -5.26648
O   -20.56513 -12.15352  -5.64834
C   -20.94911 -12.95010  -4.51702
H   -11.24444  -8.45886  -5.68447
H   -12.05287  -6.86486  -5.73521
H   -11.89909  -7.83140  -7.22683
H   -13.31358  -9.43027  -5.32010
H   -17.47529  -6.92657  -6.34959
H   -20.24424  -6.09423  -6.74025
H   -19.63801  -7.06688  -8.10388
H   -18.79492  -5.56069  -7.63724
H   -16.26937 -10.33565  -3.47239
H   -16.46745 -11.67573  -1.58583
H   -18.15678 -11.14467  -1.35816
H   -17.78092 -12.42056  -2.54551
H   -14.83853 -10.76897  -8.49336
H   -15.17214  -9.04592  -8.68077
H   -16.98292  -9.44200 -10.25873
H   -15.53335 -10.29970 -10.78476
H   -16.62163 -12.41517  -9.61121
H   -17.10941 -11.88467 -11.21044
H   -19.02909 -10.54859  -9.78888
H   -19.19165 -12.14265 -10.50295
H   -20.05477 -12.60641  -8.44876
H   -18.36737 -13.06569  -8.17498
H   -19.80487 -10.51605  -7.25568
H   -20.54250 -12.51121  -3.59544
H   -20.58662 -13.98177  -4.62962
H   -22.04487 -12.93248  -4.49398
