31
Generated by autodE on: 2022-06-17. E = -838.383681 Ha
C    -2.10963   3.00905  -0.16184
O    -1.61136   1.69665  -0.47662
C    -0.67881   1.19448   0.32447
O    -0.24618   1.74823   1.30872
C    -0.16910  -0.15659  -0.20283
C    -1.34676  -0.89792  -0.84868
O    -1.40712  -1.19184  -2.02158
O    -2.29377  -1.16653   0.04275
C    -3.47663  -1.82410  -0.44291
N     0.34151  -0.93043   0.93980
C     1.61980  -0.91457   0.87550
C     2.40842  -1.56150   1.89436
N     3.08113  -2.06673   2.69481
C     2.26650  -0.16986  -0.26904
C     2.98217   1.09597   0.21867
C     1.03006   0.02853  -1.18640
C     1.01265   1.28638  -2.04366
H    -2.57461   3.00815   0.83365
H    -2.85301   3.23938  -0.93267
H    -1.28859   3.73918  -0.18870
H    -4.12564  -1.95830   0.42958
H    -3.21855  -2.79809  -0.88202
H    -3.97375  -1.19827  -1.19779
H     3.00685  -0.82260  -0.75702
H     3.78321   0.83101   0.92608
H     3.44361   1.62190  -0.62920
H     2.28700   1.78043   0.72394
H     0.98153  -0.84182  -1.85470
H     1.88634   1.29720  -2.71256
H     1.03927   2.20730  -1.44244
H     0.10799   1.31054  -2.66770
