25
Generated by autodE on: 2022-06-02. E = -1843.745484 Ha
C     3.36121   0.71376  -0.12067
C     2.57062   0.07619  -1.22175
O     2.79457   0.24873  -2.40004
C     1.39562  -0.85451  -0.79751
Cl    2.26323  -2.43395  -0.36493
C     0.65012  -0.34266   0.33028
C    -0.25830   0.21645   0.90602
C    -1.56117   0.82847   1.02306
Cl   -2.72706  -0.38916   1.73063
Cl   -1.53393   2.27923   2.11907
C    -2.02344   1.24722  -0.38505
C    -1.89702   0.16609  -1.47796
C    -0.55736   0.05212  -2.25856
C     0.39109  -1.12322  -1.93248
H     4.30844   1.10300  -0.51489
H     2.76788   1.55038   0.28602
H     3.53992   0.00798   0.70282
H    -3.06835   1.57736  -0.28957
H    -1.42445   2.12913  -0.66073
H    -2.18292  -0.81443  -1.06340
H    -2.67707   0.40967  -2.21441
H    -0.00751   1.00633  -2.20667
H    -0.81811  -0.07357  -3.32006
H     0.98446  -1.37942  -2.82104
H    -0.19578  -2.01115  -1.65594
