17
Generated by autodE on: 2022-07-27. E = -513.410789 Ha
C    -0.46951  -1.88713   2.37596
O    -0.03832  -1.03963   1.30484
C     0.50152   0.14181   1.64955
O     0.70779   0.47176   2.81270
C     0.94334   0.94854   0.53291
O     0.65558   0.80040  -0.74423
C    -0.35611   0.29020  -1.40007
C    -1.63731  -0.12817  -0.78843
C    -0.17787   0.34877  -2.80336
N    -0.06281   0.36347  -3.96569
H    -0.89537  -2.77946   1.90252
H    -1.23257  -1.38217   2.98636
H     0.38105  -2.16682   3.01452
H     1.75094   1.66032   0.69829
H    -2.42931  -0.07442  -1.54806
H    -1.87573   0.55520   0.04671
H    -1.60832  -1.14677  -0.37254
