17
Generated by autodE on: 2022-06-02. E = -513.424580 Ha
C     3.44593  -0.33197   0.15661
O     2.01859  -0.23525   0.10849
C     1.51473   0.86486  -0.48458
O     2.21047   1.75068  -0.96886
C     0.07334   0.91088  -0.49830
O    -0.58082  -0.08747   0.04768
C    -1.87747  -0.23266   0.14584
C    -2.80429   0.78875  -0.38355
C    -2.27842  -1.42385   0.78596
N    -2.64891  -2.40058   1.30995
H     3.66831  -1.27942   0.66183
H     3.87202  -0.33695  -0.85776
H     3.87525   0.50705   0.72447
H    -0.46150   1.74859  -0.94182
H    -3.84622   0.49142  -0.21499
H    -2.61894   1.76406   0.10526
H    -2.63614   0.93415  -1.46744
