21
Generated by autodE on: 2022-10-07. E = -607.940886 Ha
C     3.86231   0.90096   0.81563
O     2.68851   0.24596   0.32761
C     2.88377  -0.89505  -0.37240
O     3.99223  -1.36151  -0.59245
N     1.73295  -1.49050  -0.81879
N     0.63880  -0.89521  -0.51583
C    -0.41049  -0.44318  -0.30111
C    -1.68654   0.12048  -0.03312
C    -2.85521  -0.58660  -0.38387
C    -4.09947  -0.02068  -0.11587
C    -4.18781   1.23449   0.49696
C    -3.02596   1.93305   0.84485
C    -1.77205   1.38611   0.58335
H     4.41990   0.24479   1.50040
H     3.51199   1.79106   1.35241
H     4.51826   1.19828  -0.01609
H    -2.77420  -1.56492  -0.85978
H    -5.00724  -0.56394  -0.38624
H    -5.16732   1.67077   0.70442
H    -3.09727   2.91220   1.32273
H    -0.85899   1.92141   0.84827
