23
Generated by autodE on: 2022-06-26. E = -351.521386 Ha
C     1.50798  -1.54961   3.10257
C     1.10253  -1.47452   1.81581
C     1.27356  -2.63679   0.87135
C     0.48336  -0.24872   1.31558
C     0.03600  -0.04864   0.05044
C    -0.57265   1.18821  -0.39497
C    -1.04590   1.46520  -1.63628
C    -1.01666   0.50361  -2.79028
C    -1.65425   2.80375  -1.94620
H     1.97386  -2.45448   3.50264
H     1.38215  -0.70425   3.78610
H     0.30138  -2.97015   0.47164
H     1.75188  -3.49020   1.37234
H     1.89060  -2.35512   0.00194
H     0.38077   0.56693   2.04147
H     0.13548  -0.85749  -0.67842
H    -0.65298   1.97617   0.36370
H    -0.45556   0.93909  -3.63596
H    -2.04053   0.32448  -3.16357
H    -0.56738  -0.46754  -2.54604
H    -1.10763   3.30168  -2.76725
H    -1.65524   3.47257  -1.07302
H    -2.69486   2.68853  -2.29935
