53
Generated by autodE on: 2022-06-29. E = -1255.601794 Ha. Imaginary frequency = -251.3 cm-1
C     3.65359   3.21834  -0.86920
O     3.25282   2.17609   0.02209
C     1.92804   1.87288   0.03087
O     1.12055   2.50133  -0.64181
C     1.68503   0.70150   0.85686
C     2.78838   0.03519   1.61499
O     0.47809   0.31255   1.24853
C    -0.76476   0.37632   0.77855
C    -1.61992  -0.69200   1.32322
C    -2.95854  -0.85824   0.90591
C    -3.74127  -1.90196   1.40070
C    -3.22342  -2.79860   2.33981
C    -1.90630  -2.63234   2.78278
C    -1.11538  -1.60096   2.28177
C    -1.34863   1.68509   0.40693
C    -2.28391   1.85653  -0.62798
C    -2.86490   3.10596  -0.85856
C    -2.53249   4.20259  -0.05857
C    -1.60664   4.04132   0.97830
C    -1.02032   2.79821   1.20671
C     0.13289  -0.65889  -1.47694
F    -0.63504   0.14490  -2.24923
C    -0.22757  -2.11704  -1.32122
C     0.31746  -2.80433  -2.61677
C     1.86249  -2.66993  -2.46101
C     2.01544  -1.91636  -1.09716
C     0.85108  -2.54021  -0.30511
C     1.48907  -0.51509  -1.35581
H     4.73962   3.31754  -0.75214
H     3.41032   2.95937  -1.91092
H     3.16030   4.16748  -0.61161
H     3.12189   0.63809   2.47882
H     3.66318  -0.12296   0.97032
H     2.44273  -0.93855   1.98775
H    -3.39688  -0.17369   0.18291
H    -4.76989  -2.01023   1.04841
H    -3.83981  -3.61285   2.72731
H    -1.48904  -3.31320   3.52873
H    -0.09594  -1.48201   2.64672
H    -2.53417   1.02175  -1.27821
H    -3.58102   3.22153  -1.67575
H    -2.99067   5.17737  -0.24160
H    -1.33935   4.88949   1.61330
H    -0.29877   2.68004   2.01769
H    -1.27519  -2.33180  -1.07717
H     0.00526  -3.85905  -2.64095
H    -0.06913  -2.31742  -3.52381
H     2.33046  -2.11645  -3.28807
H     2.34600  -3.65710  -2.40162
H     3.01476  -1.98275  -0.64877
H     0.72118  -2.10129   0.68703
H     0.93358  -3.63340  -0.21243
H     2.06451   0.25725  -1.86434
