39
Generated by autodE on: 2022-06-17. E = -748.803067 Ha
C    -2.58567  -2.06860  -1.20588
N    -1.70569  -0.98377  -0.83290
N    -0.53773  -1.51103  -0.18292
C     0.13601  -0.35235   0.44803
C     0.38416  -0.69359   1.85856
N     0.60554  -0.98406   2.96064
C     1.49427  -0.04225  -0.19065
C     2.42669   0.76126   0.48108
C     3.64095   1.09443  -0.12386
C     3.93781   0.62570  -1.40753
C     3.01353  -0.18175  -2.07677
C     1.79957  -0.51708  -1.47016
C    -0.91540   0.86959   0.33096
C    -0.95889   1.74469   1.58400
C    -0.54615   1.77046  -0.85543
C    -2.24476   0.08103   0.04903
C    -2.89064  -0.46737   1.33509
C    -3.29333   0.90264  -0.70055
H    -2.88738  -2.70737  -0.34884
H    -2.08042  -2.71298  -1.94130
H    -3.49416  -1.66349  -1.67160
H    -0.84417  -2.14367   0.56735
H     2.20521   1.13290   1.48400
H     4.35831   1.72033   0.41216
H     4.88776   0.88406  -1.88138
H     3.23840  -0.55758  -3.07790
H     1.08108  -1.15290  -1.98623
H    -1.17975   1.18573   2.50136
H    -1.73101   2.52034   1.46444
H     0.00613   2.25539   1.72377
H    -0.51199   1.21582  -1.80120
H     0.43386   2.23915  -0.69705
H    -1.28374   2.57924  -0.94953
H    -3.27410   0.35571   1.95357
H    -2.19968  -1.05490   1.95652
H    -3.74538  -1.11123   1.08129
H    -2.97159   1.14702  -1.72114
H    -4.24026   0.34593  -0.76566
H    -3.49958   1.84021  -0.16270
