39
Generated by autodE on: 2022-06-17. E = -748.742534 Ha. Imaginary frequency = -386.0 cm-1
C    -2.35000  -2.44000  -0.62731
N    -1.33935  -1.41038  -0.52959
N    -0.52911  -1.61543   0.49305
C     0.44022  -0.66936   0.73985
C     0.88408  -0.66422   2.09387
N     1.23151  -0.62892   3.20679
C     1.40644  -0.21021  -0.27975
C     2.53132   0.53892   0.12412
C     3.45822   1.00628  -0.80744
C     3.29469   0.73115  -2.16865
C     2.18771  -0.01726  -2.58107
C     1.24878  -0.47499  -1.65515
C    -1.15432   1.10998   0.66732
C    -1.37075   1.26284   2.15247
C    -0.33246   2.20989   0.04840
C    -2.15548   0.45093  -0.10561
C    -3.41827   0.03411   0.61904
C    -2.36588   0.87089  -1.54136
H    -2.79108  -2.71619   0.35141
H    -1.91681  -3.35222  -1.07346
H    -3.14893  -2.09327  -1.29487
H    -0.92854  -2.06244   1.33083
H     2.68318   0.76038   1.18223
H     4.31707   1.58791  -0.46376
H     4.01958   1.09800  -2.89889
H     2.04330  -0.24083  -3.64114
H     0.37230  -1.02557  -1.98840
H    -1.65173   0.32021   2.64450
H    -2.19127   1.97965   2.34962
H    -0.47234   1.65126   2.65281
H     0.02457   1.97281  -0.96137
H     0.54376   2.45125   0.66774
H    -0.94043   3.13241  -0.02988
H    -3.92919   0.91911   1.03907
H    -3.21522  -0.64316   1.46237
H    -4.12884  -0.46294  -0.05490
H    -1.42093   0.95796  -2.09265
H    -3.00287   0.14683  -2.07179
H    -2.87277   1.85246  -1.58803
