69
Generated by autodE on: 2022-06-09. E = -1387.400143 Ha
C   -13.37711  -1.38946  -3.08591
N   -12.72837  -2.33073  -2.19882
C   -12.28520  -1.97491  -0.98344
O   -12.44060  -0.82839  -0.53671
C   -11.65430  -3.11065  -0.16006
C   -10.98869  -2.63664   1.16120
C    -9.46273  -2.53960   1.18510
C    -8.84034  -1.43858   0.32551
C    -9.21215  -1.40405  -1.15977
C    -8.91123  -2.63549  -2.04776
C    -7.39350  -2.90772  -1.98570
C    -9.28055  -2.22129  -3.49284
C    -9.68138  -3.90862  -1.67494
C   -10.80124  -4.08754  -0.94404
C   -11.11797  -5.57788  -0.77776
C   -12.40433  -5.98114  -1.54300
C   -12.85071  -7.42113  -1.49853
O   -12.97704  -5.19259  -2.28529
C   -11.14542  -5.92933   0.70530
C   -12.35210  -6.01258   1.41258
C   -12.35454  -6.21746   2.79606
C   -11.14699  -6.34838   3.48714
C    -9.93769  -6.27184   2.78669
C    -9.93829  -6.06111   1.40699
N   -10.07493  -6.22494  -1.56018
C    -9.59146  -7.56313  -1.33000
C    -9.15058  -5.26525  -2.13933
C    -9.04419  -5.45728  -3.64853
C   -10.19380  -5.36850  -4.44924
C   -10.11296  -5.55100  -5.82962
C    -8.87938  -5.83420  -6.43183
C    -7.73392  -5.94204  -5.64016
C    -7.82041  -5.75834  -4.25436
H   -13.56885  -1.88155  -4.04812
H   -12.73750  -0.51029  -3.26226
H   -14.33697  -1.02939  -2.67770
H   -12.68334  -3.32227  -2.44476
H   -12.54900  -3.67412   0.15194
H   -11.28809  -3.34433   1.94783
H   -11.43235  -1.66487   1.42596
H    -9.15999  -2.36478   2.23176
H    -9.03189  -3.51488   0.91388
H    -9.12666  -0.45948   0.74892
H    -7.74348  -1.49769   0.42725
H   -10.26051  -1.11414  -1.26992
H    -8.65006  -0.57034  -1.61260
H    -7.08763  -3.30019  -1.00419
H    -7.07089  -3.62381  -2.75291
H    -6.84554  -1.96847  -2.16059
H    -9.00105  -2.98557  -4.22772
H    -8.75268  -1.29062  -3.75597
H   -10.36207  -2.03800  -3.57884
H   -12.38607  -7.94970  -2.34699
H   -12.56496  -7.93730  -0.57488
H   -13.94020  -7.46150  -1.63651
H   -13.30452  -5.90425   0.88796
H   -13.30399  -6.27451   3.33354
H   -11.14694  -6.51025   4.56760
H    -8.98900  -6.36993   3.31974
H    -8.99281  -5.98006   0.86917
H    -8.63650  -7.57869  -0.76749
H    -9.41662  -8.08680  -2.28654
H   -10.31974  -8.15063  -0.75908
H    -8.13800  -5.42168  -1.71858
H   -11.15411  -5.14095  -3.98284
H   -11.01418  -5.47075  -6.44272
H    -8.81597  -5.97637  -7.51341
H    -6.76970  -6.17440  -6.09914
H    -6.92385  -5.84735  -3.63519
