36
Generated by autodE on: 2022-06-09. E = -788.358267 Ha
C    -2.44335   2.44878  -1.32416
C    -1.08264   1.78533  -1.15010
O    -0.09409   2.34729  -1.70264
C    -1.02489   0.59238  -0.38139
C    -2.26983   0.02940   0.21543
C    -2.51686   0.12261   1.59749
C    -3.69526  -0.38157   2.15257
C    -4.65743  -0.98063   1.33250
C    -4.43019  -1.07456  -0.04413
C    -3.24588  -0.57750  -0.59445
N     0.18448  -0.07598  -0.10801
C     0.07078  -1.37945   0.58153
C     1.37832   0.35810  -0.48732
C     2.68702  -0.19106  -0.17464
C     3.70961   0.07522  -1.11714
C     5.01398  -0.36582  -0.91050
C     5.34258  -1.06390   0.25747
C     4.35417  -1.30251   1.21807
C     3.04300  -0.87386   1.01213
H    -2.27648   3.48034  -1.66488
H    -3.04021   1.92742  -2.08997
H    -3.03720   2.45929  -0.39938
H    -1.77446   0.60154   2.24052
H    -3.86751  -0.29920   3.22860
H    -5.58153  -1.37152   1.76513
H    -5.17590  -1.54205  -0.69191
H    -3.06625  -0.66113  -1.66879
H     0.01525  -1.24409   1.66825
H     0.93519  -1.99758   0.32629
H    -0.83856  -1.88079   0.23961
H     1.33884   1.24061  -1.12365
H     3.45843   0.62800  -2.02544
H     5.78063  -0.16082  -1.66131
H     6.36606  -1.40721   0.42440
H     4.60777  -1.82163   2.14536
H     2.30767  -1.03945   1.79775
