36
Generated by autodE on: 2022-07-27. E = -788.364620 Ha
C    -0.87767  -2.18122  -1.63235
C    -1.22719  -1.41121  -0.36628
O    -2.45101  -1.21203  -0.14568
C    -0.20353  -0.98066   0.52187
C    -0.42167  -0.34433   1.81996
C    -1.60353  -0.52511   2.57907
C    -1.77108   0.10335   3.81259
C    -0.77302   0.93143   4.34088
C     0.40038   1.12617   3.60511
C     0.57008   0.50806   2.36584
N     1.15024  -1.09453   0.10562
C     2.02855  -1.97505   0.89701
C     1.61550  -0.59735  -1.01426
C     1.03815   0.41120  -1.88410
C    -0.03045   1.27554  -1.54685
C    -0.42754   2.27106  -2.43236
C     0.19787   2.41056  -3.67988
C     1.24758   1.55776  -4.02965
C     1.67195   0.57593  -3.13551
H    -1.63558  -2.96997  -1.75241
H     0.12072  -2.63881  -1.63871
H    -0.95762  -1.51786  -2.50961
H    -2.39065  -1.16601   2.18821
H    -2.69470  -0.06227   4.37396
H    -0.91017   1.41965   5.30852
H     1.18913   1.77656   3.99256
H     1.48428   0.69898   1.79940
H     1.83994  -3.01739   0.59918
H     1.78500  -1.86165   1.95885
H     3.08145  -1.71692   0.73013
H     2.59107  -0.98387  -1.32192
H    -0.54197   1.17077  -0.59218
H    -1.24373   2.94133  -2.15427
H    -0.13641   3.18398  -4.37506
H     1.74300   1.66212  -4.99722
H     2.50591  -0.07845  -3.39892
