33
Generated by autodE on: 2022-06-09. E = -598.941533 Ha
C    -1.54344   3.95113   0.66508
N    -0.98391   2.69766   0.20410
C     0.30347   2.53927  -0.14948
O     1.14039   3.45037  -0.12951
C     0.72619   1.13312  -0.57131
C    -0.32382   0.12166  -0.66837
C    -0.81968  -0.98353  -0.58054
C    -0.97182  -2.40442  -0.24121
C    -1.61449  -3.21258  -1.37905
C    -1.80978  -2.55669   1.04183
C     0.49441  -2.89517  -0.00765
C     1.41078  -2.01578   0.87008
C     2.22731  -0.87749   0.19057
C     1.78904   0.58245   0.42506
H    -1.78779   3.91236   1.73917
H    -2.46202   4.19302   0.10965
H    -0.80805   4.74804   0.50200
H    -1.58433   1.87853   0.17109
H     1.20749   1.25615  -1.55707
H    -1.62195  -4.28373  -1.12250
H    -1.05546  -3.08693  -2.31888
H    -2.65443  -2.89351  -1.54956
H    -2.82608  -2.16034   0.89395
H    -1.89013  -3.62190   1.31031
H    -1.35374  -2.01903   1.88628
H     0.41944  -3.89997   0.44171
H     0.97035  -3.03035  -0.99338
H     2.14089  -2.70191   1.32773
H     0.83653  -1.60271   1.71646
H     2.30650  -1.06756  -0.89392
H     3.25722  -0.94812   0.57476
H     2.66251   1.24866   0.36107
H     1.38501   0.68373   1.44667
