69
Generated by autodE on: 2022-06-09. E = -1387.290474 Ha. Imaginary frequency = -314.8 cm-1
C   -14.58695  -3.32000  -2.88197
N   -13.67126  -3.46036  -1.76539
C   -12.77193  -2.50401  -1.48345
O   -12.78678  -1.39303  -2.02557
C   -11.69068  -2.90151  -0.46213
C   -11.16260  -1.65791   0.30311
C    -9.79816  -1.84997   0.98772
C    -8.59071  -1.22911   0.26034
C    -8.35901  -1.50379  -1.23329
C    -8.11335  -2.96432  -1.71059
C    -7.04758  -3.65601  -0.84366
C    -7.63378  -2.91056  -3.17132
C    -9.42856  -3.68766  -1.60186
C   -10.58339  -3.56529  -1.15537
C   -11.10982  -6.22414  -0.99669
C   -12.19426  -6.57886  -1.88179
C   -11.95055  -7.51871  -3.04466
O   -13.38176  -6.23721  -1.67228
C   -11.32820  -6.07348   0.45671
C   -12.53749  -6.46296   1.07829
C   -12.73761  -6.29749   2.44953
C   -11.73966  -5.74429   3.25796
C   -10.53390  -5.35717   2.66480
C   -10.33497  -5.51282   1.29410
N    -9.79692  -6.36642  -1.46432
C    -8.78341  -7.10262  -0.68575
C    -9.30440  -5.62876  -2.49242
C    -9.94025  -5.31011  -3.80758
C   -11.16972  -4.66072  -4.02157
C   -11.63107  -4.41131  -5.31196
C   -10.87587  -4.79695  -6.42657
C    -9.65081  -5.43724  -6.23257
C    -9.18894  -5.68602  -4.93720
H   -15.01734  -4.30462  -3.10314
H   -14.06551  -2.94821  -3.77843
H   -15.40637  -2.61933  -2.65382
H   -13.51587  -4.41538  -1.41998
H   -12.13842  -3.60441   0.25818
H   -11.93149  -1.39131   1.04540
H   -11.11444  -0.82095  -0.40862
H    -9.83723  -1.38424   1.98585
H    -9.62408  -2.91913   1.17296
H    -7.68029  -1.49838   0.82184
H    -8.67642  -0.13184   0.35265
H    -9.19995  -1.10232  -1.82210
H    -7.47189  -0.91736  -1.52861
H    -7.38841  -3.78481   0.19375
H    -6.79615  -4.64863  -1.24507
H    -6.12601  -3.05203  -0.83097
H    -7.40941  -3.91102  -3.56518
H    -6.71321  -2.30953  -3.23616
H    -8.39247  -2.44913  -3.82200
H   -12.42079  -7.12029  -3.95495
H   -10.89831  -7.74527  -3.24081
H   -12.46893  -8.45996  -2.79243
H   -13.33419  -6.89646   0.47784
H   -13.68714  -6.61202   2.89047
H   -11.90033  -5.61328   4.33053
H    -9.74123  -4.91135   3.27099
H    -9.40147  -5.16246   0.86121
H    -8.01757  -6.43150  -0.27305
H    -8.29415  -7.83034  -1.34886
H    -9.26865  -7.64604   0.12977
H    -8.23574  -5.81705  -2.62663
H   -11.77387  -4.34715  -3.17686
H   -12.59100  -3.90710  -5.44535
H   -11.24052  -4.59509  -7.43637
H    -9.04506  -5.74111  -7.08945
H    -8.22596  -6.18231  -4.79554
