43
Generated by autodE on: 2022-05-31. E = -1455.369399 Ha
C    -2.83479   3.06710  -0.03870
N    -2.13661   1.86317  -0.44249
C    -2.38882   0.68726   0.16031
O    -3.33580   0.55533   0.94359
C    -1.44712  -0.49215  -0.17675
C    -1.11033  -0.57167  -1.68037
N     0.31075  -0.92240  -1.74000
C     1.01510  -0.29602  -0.63036
C     2.36846  -0.99078  -0.33010
C     3.11545  -1.53528  -1.51307
O     2.80140  -1.04551   0.80338
C     1.33969   1.18939  -0.94593
O     0.57885   1.92968  -1.53959
O     2.55402   1.54850  -0.56066
C     2.94898   2.91066  -0.80719
C    -0.02119  -0.40550   0.53264
Cl    0.16335   1.03406   1.66200
C     0.00622  -1.67577   1.42121
C     0.09707  -2.96081   0.56870
C    -1.30565  -3.05208  -0.09093
C    -2.02466  -1.80146   0.44785
C    -1.46191  -1.73562   1.87904
H    -2.60003   3.34015   1.00489
H    -2.53272   3.89217  -0.69616
H    -3.92337   2.93223  -0.11630
H    -1.26161   1.96988  -0.95412
H    -1.71499  -1.34409  -2.17650
H    -1.32746   0.37691  -2.18831
H     0.72978  -0.68768  -2.63802
H     2.57269  -2.40030  -1.92407
H     3.16998  -0.77955  -2.31284
H     4.12407  -1.84058  -1.20720
H     2.28012   3.59468  -0.26629
H     3.97385   2.99708  -0.43037
H     2.91285   3.12692  -1.88368
H     0.77035  -1.60622   2.20028
H     0.28075  -3.80693   1.24727
H     0.90947  -2.95536  -0.16567
H    -1.25928  -3.09535  -1.18560
H    -1.84661  -3.94822   0.24723
H    -3.11589  -1.83707   0.35601
H    -1.67680  -2.64037   2.46685
H    -1.78545  -0.85285   2.44296
