19
Generated by autodE on: 2022-05-31. E = -514.709238 Ha
C     0.27580   2.48118  -0.73792
N    -0.53583   1.49164  -0.55634
C    -0.43478   0.17394  -0.12271
C    -1.73143  -0.46872  -0.12360
C    -1.88686  -1.90341   0.30529
O    -2.73457   0.18124  -0.48757
C     0.80489  -0.45118   0.27013
O     0.93447  -1.60929   0.65681
O     1.87044   0.38089   0.17383
C     3.14283  -0.15999   0.53978
H    -0.15205   3.41598  -1.10287
H     1.33840   2.37770  -0.53325
H    -1.53937   1.65240  -0.76778
H    -1.53692  -2.04433   1.33853
H    -1.27910  -2.56926  -0.32507
H    -2.94687  -2.17920   0.22782
H     3.40426  -1.01455  -0.10170
H     3.86764   0.65077   0.39837
H     3.14270  -0.48537   1.59055
