24
Generated by autodE on: 2022-05-31. E = -940.616512 Ha
C     3.78535   0.58502  -0.75313
N     2.36862   0.34398  -0.93180
C     1.60553  -0.16213   0.06558
O     2.09381  -0.47417   1.16147
C     0.16938  -0.31688  -0.25257
C    -0.87266  -0.35441   0.60903
Cl   -0.86685  -0.21250   2.33176
C    -2.16797  -0.30604  -0.17161
C    -2.25391   1.14861  -0.74149
C    -1.08511   1.18983  -1.76677
C    -0.46773  -0.24015  -1.64345
C    -1.73795  -1.08727  -1.42883
H     4.20547   0.95515  -1.69633
H     3.97449   1.33228   0.03543
H     4.31180  -0.33987  -0.46978
H     1.92821   0.63748  -1.79614
H    -3.05583  -0.64326   0.37564
H    -3.22759   1.29560  -1.23118
H    -2.15909   1.89875   0.05628
H    -1.45453   1.35397  -2.78980
H    -0.34360   1.97022  -1.54541
H     0.18704  -0.53168  -2.47424
H    -2.45910  -1.00280  -2.25561
H    -1.52103  -2.14566  -1.22467
