45
Generated by autodE on: 2022-06-01. E = -1258.406300 Ha
C     3.81524   0.47872  -1.65623
O     2.64972   0.70705  -0.84496
C     1.77444  -0.28428  -0.75193
O     1.87632  -1.34391  -1.33086
C     0.62199   0.07324   0.18372
C     0.99681  -0.34967   1.61701
O     0.29135  -0.14775   2.58229
O     2.23686  -0.81710   1.68535
C     2.72415  -1.18384   2.98751
C     0.29173   1.60728   0.22030
C     1.24897   2.41392   0.97756
N     1.99385   3.05618   1.59105
N    -1.04934   1.70149   0.76939
C    -1.82939   0.57541   0.24422
C    -2.75235   0.08427   1.37330
C    -2.78522   1.00254  -0.89347
C    -3.02727   2.46212  -1.10983
O    -3.36130   0.14210  -1.53739
C    -0.75809  -0.51910  -0.28275
C    -0.71575  -0.52357  -1.85300
C    -0.88311  -1.79175  -2.63053
O    -0.51401   0.53820  -2.41381
C    -0.97202  -1.93855   0.26446
C    -2.26271  -2.66506  -0.00571
O    -0.08177  -2.48143   0.89569
H     3.51789   0.26054  -2.69122
H     4.39737   1.40547  -1.61022
H     4.39569  -0.36159  -1.25033
H     2.70736  -0.31283   3.65710
H     2.10291  -1.98854   3.40533
H     3.75160  -1.53170   2.83487
H     0.30515   1.96901  -0.81708
H    -0.98150   1.58415   1.78008
H    -3.48983  -0.64026   1.01674
H    -3.29887   0.95106   1.77405
H    -2.15938  -0.35651   2.18550
H    -3.78331   2.59843  -1.89364
H    -2.08270   2.94715  -1.40216
H    -3.35129   2.94180  -0.17423
H    -0.48945  -1.63594  -3.64304
H    -0.38305  -2.64402  -2.15441
H    -1.95826  -2.01857  -2.70392
H    -2.72955  -2.89338   0.96477
H    -2.02429  -3.62617  -0.48424
H    -2.96191  -2.09495  -0.62450
