17
Generated by autodE on: 2022-06-01. E = -418.341046 Ha
C    -2.91408  -0.20371  -0.92661
C    -1.83379  -0.45566   0.08964
O    -2.08455  -1.02516   1.16528
C    -0.47216  -0.01634  -0.20448
C    -0.02258   0.66970  -1.44649
N     0.37600  -0.29913   0.78716
C     1.68186  -0.10512   0.99942
C     2.56881   0.53082   0.11538
N     3.38068   1.04573  -0.55262
H    -3.86746  -0.59292  -0.54742
H    -2.67172  -0.69341  -1.88342
H    -3.01237   0.87465  -1.13076
H     0.76673   0.09339  -1.95811
H     0.39339   1.66763  -1.22691
H    -0.85462   0.79831  -2.14766
H    -0.12518  -0.77791   1.55383
H     2.07591  -0.47304   1.94678
