28
Generated by autodE on: 2022-06-01. E = -840.023222 Ha
C     2.55554   2.89989  -0.53263
O     1.98735   1.57954  -0.53159
C     0.80267   1.43778   0.05010
O     0.18027   2.35845   0.54682
C     0.26873   0.04300  -0.03295
C     1.15685  -1.14496  -0.23620
O     0.78032  -2.17582  -0.76136
O     2.36952  -0.97878   0.27796
C     3.28197  -2.08317   0.15957
C    -1.06066  -0.14971   0.07479
C    -1.72317  -1.51439  -0.01514
C    -2.31718  -1.86676  -1.34160
O    -1.82105  -2.18416   0.99452
C    -2.05940   0.97097   0.30867
C    -2.44843   1.21126   1.73274
O    -2.56746   1.51270  -0.65405
H     1.89742   3.59734  -1.07004
H     2.70149   3.25167   0.49848
H     3.51927   2.80979  -1.04586
H     4.21386  -1.75264   0.63149
H     2.88099  -2.96588   0.67759
H     3.45245  -2.32332  -0.89946
H    -1.53537  -1.84486  -2.11481
H    -2.78976  -2.85686  -1.29363
H    -3.06292  -1.10040  -1.61153
H    -2.94855   0.30328   2.11179
H    -1.55449   1.37355   2.35101
H    -3.13238   2.06809   1.79797
