45
Generated by autodE on: 2022-06-01. E = -1258.362565 Ha. Imaginary frequency = -107.7 cm-1
C     3.71088   1.37636  -1.48445
O     2.52187   1.04422  -0.75034
C     2.05035  -0.18533  -0.88534
O     2.57387  -1.04887  -1.55661
C     0.87236  -0.48537   0.01965
C     1.28635  -0.58731   1.47616
O     0.92559   0.14606   2.37177
O     2.22795  -1.51988   1.60685
C     2.74216  -1.73627   2.93230
C    -0.07894   1.90370   0.17365
C     0.90941   2.68730   0.80899
N     1.72143   3.34955   1.32202
N    -1.14070   1.50452   0.90302
C    -2.27701   0.89252   0.55527
C    -3.07377   0.29022   1.67147
C    -2.89079   0.99775  -0.78382
C    -2.45434   2.05678  -1.76372
O    -3.84166   0.26059  -1.05828
C    -0.26416  -1.09442  -0.47582
C    -0.51969  -0.88872  -1.93623
C    -1.43807  -1.76639  -2.73517
O     0.05791   0.04337  -2.49692
C    -1.07730  -1.92981   0.45737
C    -2.35612  -2.59428   0.03178
O    -0.67197  -2.09291   1.60845
H     3.52269   1.29662  -2.56450
H     3.94653   2.41114  -1.21175
H     4.53390   0.70585  -1.20012
H     3.18794  -0.81194   3.32531
H     1.93258  -2.07006   3.59705
H     3.50344  -2.51821   2.83477
H    -0.10297   1.86074  -0.91071
H    -0.95288   1.49329   1.91130
H    -3.78755  -0.43889   1.27398
H    -3.65365   1.07213   2.19309
H    -2.42105  -0.20393   2.40568
H    -3.32011   2.30111  -2.39372
H    -1.65883   1.66747  -2.41803
H    -2.08039   2.96553  -1.27069
H    -1.23488  -1.59062  -3.79920
H    -1.31358  -2.83003  -2.49534
H    -2.48357  -1.48741  -2.53114
H    -2.85475  -2.97796   0.93053
H    -2.13119  -3.44270  -0.63214
H    -3.02188  -1.90831  -0.50581
