41
Generated by autodE on: 2022-06-18. E = -845.171878 Ha
C     4.49629   1.28189   2.49373
C     3.95707   0.34042   1.69295
C     4.70771  -0.91190   1.32431
C     2.60252   0.52910   1.16163
C     1.94831  -0.32965   0.35827
C     0.55685  -0.09962  -0.13369
C     0.39000  -0.32657  -1.66124
C     0.65354   0.90596  -2.41064
N     0.87507   1.87045  -3.01833
N    -0.96856  -0.85318  -1.85367
C    -1.69984  -0.82699  -0.58219
C    -2.77613  -1.91459  -0.55835
C    -2.35675   0.54906  -0.38270
O    -2.00403   1.56125  -0.95794
O    -3.36567   0.52963   0.48927
C    -3.99650   1.78512   0.78186
C    -0.55014  -1.01446   0.47926
C    -0.90952  -0.54971   1.89013
C    -0.10161  -2.48106   0.53512
H     3.94111   2.18804   2.75502
H     5.50263   1.17158   2.90754
H     4.15857  -1.81246   1.64608
H     5.70458  -0.92981   1.78687
H     4.83048  -0.99287   0.23139
H     2.09778   1.45625   1.45818
H     2.43098  -1.25835   0.03977
H     0.27295   0.93646   0.09467
H     1.13906  -1.05885  -2.01099
H    -1.47368  -0.35827  -2.58502
H    -2.34219  -2.87927  -0.84718
H    -3.57717  -1.67360  -1.27412
H    -3.22797  -2.00865   0.43834
H    -3.26729   2.48824   1.20972
H    -4.78465   1.56502   1.51090
H    -4.43090   2.21879  -0.13008
H    -1.15281   0.52235   1.92928
H    -0.05272  -0.71836   2.56030
H    -1.76602  -1.11471   2.28784
H    -0.89537  -3.11753   0.95074
H     0.17310  -2.87420  -0.45421
H     0.77313  -2.57654   1.19466
