23
Generated by autodE on: 2022-06-18. E = -351.521383 Ha
C     2.12344  -0.86118   3.00806
C     1.84422  -0.59164   1.71378
C     2.92569  -0.58726   0.66369
C     0.47080  -0.29755   1.30945
C     0.06090  -0.01502   0.04732
C    -1.31669   0.26845  -0.30003
C    -1.80616   0.55432  -1.53305
C    -3.26977   0.82797  -1.73501
C    -0.97352   0.62640  -2.78155
H     1.33596  -0.86401   3.76804
H     3.14171  -1.08502   3.33807
H     3.90627  -0.82248   1.10089
H     2.71375  -1.32465  -0.12837
H     2.99427   0.39526   0.16778
H    -0.27769  -0.31275   2.11089
H     0.80134   0.00204  -0.75702
H    -2.02911   0.24530   0.53353
H    -3.70569   0.11334  -2.45618
H    -3.83847   0.76493  -0.79565
H    -3.42392   1.83182  -2.17016
H     0.09095   0.41632  -2.61615
H    -1.35193  -0.08767  -3.53422
H    -1.05940   1.62733  -3.24038
