18
Generated by autodE on: 2022-07-27. E = -493.604442 Ha
C    -3.33929  -1.50271   0.82624
O    -1.98349  -1.60295   0.37551
C    -1.27887  -0.46266   0.33310
O    -1.74417   0.62747   0.65839
C     0.08802  -0.64934  -0.13567
C     0.70709  -1.93580  -0.54146
N     0.79381   0.47861  -0.17860
C     2.06777   0.66949  -0.55389
C     2.62515   1.95417  -0.52096
N     3.11238   3.01927  -0.50159
H    -3.37854  -1.11437   1.85464
H    -3.74544  -2.52032   0.79163
H    -3.91950  -0.84101   0.16630
H     1.59249  -2.15985   0.08105
H     1.05832  -1.88998  -1.58841
H    -0.00690  -2.76059  -0.44644
H     0.25938   1.30373   0.12615
H     2.66334  -0.18082  -0.88217
