41
Generated by autodE on: 2022-06-18. E = -845.108015 Ha. Imaginary frequency = -405.1 cm-1
C     5.58943  -0.25935   0.61415
C     4.37182  -0.84498   0.57173
C     4.22524  -2.32556   0.32733
C     3.16520  -0.04440   0.76136
C     1.89357  -0.51832   0.73729
C     0.71499   0.30941   0.91020
C     0.44776   1.13212  -1.22139
C     1.05981   2.40675  -1.22362
N     1.60754   3.43611  -1.15816
N    -0.90387   1.03313  -1.24110
C    -1.49556  -0.14458  -0.86689
C    -0.98155  -1.42440  -1.46130
C    -2.93363   0.02652  -0.59841
O    -3.48836   1.11576  -0.52850
O    -3.56794  -1.13000  -0.36747
C    -4.95046  -1.04307   0.00199
C    -0.58314  -0.19332   1.19583
C    -1.50193   0.76648   1.92050
C    -0.78675  -1.64415   1.56825
H     5.69420   0.81560   0.79119
H     6.50679  -0.83757   0.47286
H     3.70300  -2.81692   1.16507
H     5.20485  -2.80777   0.20083
H     3.62353  -2.52181  -0.57568
H     3.32034   1.02784   0.93248
H     1.73253  -1.58408   0.55558
H     0.91055   1.34112   1.21519
H     1.03517   0.31078  -1.62792
H    -1.44204   1.86556  -0.99234
H     0.08705  -1.57545  -1.26009
H    -1.12119  -1.41048  -2.55672
H    -1.52779  -2.28425  -1.06142
H    -5.06529  -0.47315   0.93542
H    -5.28967  -2.07545   0.14507
H    -5.53285  -0.55885  -0.79500
H    -1.52973   1.75419   1.43471
H    -1.14198   0.92160   2.95363
H    -2.53098   0.38504   1.99190
H    -1.83964  -1.93801   1.44949
H    -0.16946  -2.33714   0.98373
H    -0.52532  -1.78988   2.63240
