32
Generated by autodE on: 2022-06-03. E = -802.124493 Ha
C    -3.20888   0.02779  -0.47883
C    -2.27916   0.35270  -1.60441
O    -2.64842   0.58873  -2.73846
C    -0.75829   0.34444  -1.30668
C    -0.13067   1.49318  -2.14653
C    -0.32626   2.88430  -1.62191
O     0.46884   1.24772  -3.17107
C    -0.40232   0.47009   0.09766
C     0.15303   0.30126   1.15992
C     1.04434  -0.40831   2.08678
C     0.25382  -1.34605   2.91488
N    -0.36268  -2.11003   3.53025
C     1.78232   0.50482   2.98234
N     2.38908   1.22212   3.66013
C     2.07050  -1.21858   1.19844
C     1.43186  -2.05790   0.07776
C     1.21980  -1.39487  -1.31181
C    -0.21753  -1.05425  -1.75252
H    -2.86974  -0.87351   0.05457
H    -3.18464   0.85599   0.24912
H    -4.23049  -0.10455  -0.85695
H     0.34165   3.03067  -0.75675
H    -0.07842   3.61992  -2.39772
H    -1.35620   3.02951  -1.26160
H     2.63984  -1.85957   1.88714
H     2.76570  -0.47645   0.77959
H     0.49051  -2.50785   0.43590
H     2.11844  -2.90514  -0.06770
H     1.86167  -0.50440  -1.40751
H     1.59371  -2.10584  -2.06415
H    -0.28192  -1.06294  -2.84899
H    -0.91015  -1.82376  -1.37722
