59
Generated by autodE on: 2022-06-07. E = -1542.425583 Ha
C    -4.73676  -0.74151   1.24297
N    -3.46508  -1.01372   0.60128
C    -2.66769  -0.03771   0.17051
O    -2.96769   1.16262   0.20557
C    -1.33492  -0.50246  -0.46415
C    -1.63697  -0.42140  -1.98706
O    -1.70039   0.60708  -2.62083
O    -1.95799  -1.61217  -2.48082
C    -2.25587  -1.65823  -3.88370
N    -1.01777  -1.88306  -0.11054
C     0.23659  -2.02891   0.08362
C     0.85764  -3.34849   0.37915
C     1.06239  -0.74644  -0.10710
C     1.61263  -0.86858  -1.55537
O     0.81895  -0.91563  -2.49906
N     2.92887  -1.05244  -1.72424
C     3.49459  -1.21454  -3.05168
C     2.14162  -0.52891   0.97313
O     2.24294  -1.25553   1.96266
N     2.93579   0.53715   0.76350
C     3.83983   1.01073   1.79335
C    -0.08313   0.34441   0.02067
C     0.23370   1.61951  -0.79022
O     1.35989   1.79382  -1.28694
N    -0.72807   2.53919  -0.82924
C    -0.60974   3.72857  -1.64455
C    -0.20703   0.73485   1.51463
C     0.39463   1.91278   1.98773
C     0.37866   2.24038   3.34522
C    -0.24238   1.39592   4.26771
C    -0.83574   0.21620   3.81459
C    -0.80820  -0.11503   2.45809
H    -5.36543  -0.10588   0.60211
H    -5.25402  -1.69123   1.42347
H    -4.59207  -0.22358   2.20494
H    -3.08969  -1.95851   0.56632
H    -3.11150  -1.00984  -4.12011
H    -2.49726  -2.70409  -4.10511
H    -1.37834  -1.33818  -4.46364
H     1.73520  -3.50867  -0.26588
H     0.13081  -4.15583   0.22403
H     1.21930  -3.36484   1.41659
H     3.55887  -0.90526  -0.94375
H     2.99298  -2.03331  -3.58752
H     4.56111  -1.45039  -2.95412
H     3.38409  -0.29500  -3.64939
H     2.66286   1.16840   0.00509
H     3.28448   1.37369   2.67530
H     4.51198   0.20411   2.11943
H     4.44178   1.83342   1.38780
H    -1.65317   2.24566  -0.49431
H    -1.39925   4.43757  -1.36413
H    -0.71331   3.48944  -2.71732
H     0.36909   4.20443  -1.49116
H     0.90084   2.59118   1.30230
H     0.85624   3.16479   3.67755
H    -0.25999   1.65264   5.32924
H    -1.31994  -0.46348   4.51938
H    -1.25874  -1.05603   2.15397
