22
Generated by autodE on: 2022-06-07. E = -608.211858 Ha
C     3.96221  -0.67377   0.21665
C     2.53943  -0.44831   0.14628
N     1.39891  -0.25345   0.08243
C     0.05734  -0.09050   0.00616
C    -0.71927  -1.33463  -0.06416
O    -0.15992  -2.44922  -0.04948
N    -2.06306  -1.20793  -0.14619
C    -2.92682  -2.36437  -0.22679
C    -0.47115   1.24383  -0.00215
O    -1.66912   1.53726  -0.06638
O     0.48995   2.19762   0.06881
C     0.04307   3.55507   0.06484
H     4.48051   0.16719  -0.27100
H     4.29835  -0.76120   1.26144
H     4.20426  -1.59932  -0.32975
H    -2.44225  -0.26311  -0.15306
H    -3.96833  -2.02508  -0.29358
H    -2.82840  -3.01286   0.65989
H    -2.70389  -2.98112  -1.11347
H     0.94851   4.17190   0.11894
H    -0.60156   3.76127   0.93257
H    -0.51142   3.78553  -0.85727
