37
Generated by autodE on: 2022-06-07. E = -934.158184 Ha
C     4.49498  -0.67100  -1.03616
N     3.25134  -0.57687  -0.30097
C     2.20256   0.11169  -0.78199
O     2.24752   0.73251  -1.85347
C     0.95225   0.07815   0.05231
C     1.07195  -0.30262   1.50334
O     1.65601  -1.34211   1.85263
N     0.54595   0.56358   2.38401
C     0.40152   0.23192   3.78795
C    -0.25249   0.33339  -0.50967
C    -0.40419   0.84692  -1.92790
O    -0.55263   2.06014  -2.11161
N    -0.52487  -0.06994  -2.90264
C    -0.20182  -1.48058  -2.78329
C    -1.54862   0.13975   0.18960
C    -2.56140   1.11287   0.11765
C    -3.77375   0.91821   0.78186
C    -3.99992  -0.25439   1.50924
C    -3.00579  -1.23677   1.56800
C    -1.78949  -1.04401   0.91258
H     4.86610   0.32956  -1.30398
H     4.37427  -1.24588  -1.96990
H     5.24291  -1.17160  -0.40914
H     3.09448  -1.14484   0.53124
H     0.01150   1.34630   2.01990
H     0.20372   1.14877   4.35700
H     1.32335  -0.23229   4.16275
H    -0.43256  -0.47359   3.94718
H    -0.61869   0.31618  -3.83996
H    -0.53717  -1.87377  -1.81470
H    -0.72376  -2.03501  -3.57423
H     0.88072  -1.66544  -2.88196
H    -2.38419   2.02862  -0.44729
H    -4.54639   1.68876   0.73015
H    -4.95123  -0.40561   2.02450
H    -3.17984  -2.16214   2.12173
H    -1.02365  -1.82064   0.94963
