52
Generated by autodE on: 2022-06-06. E = -1297.094820 Ha
C    -3.34360   0.43064  -2.82131
N    -2.67607   0.47342  -1.53663
C    -2.11422  -0.59579  -0.97423
O    -2.11726  -1.72785  -1.48276
C    -1.44450  -0.35674   0.39419
C    -2.24046  -1.04697   1.52099
O    -2.32603  -0.51201   2.63099
N    -2.75102  -2.24777   1.23349
C    -3.43969  -3.04340   2.23149
N    -1.34302   1.06987   0.69856
N    -0.10168   1.49443   0.17245
C    -0.04035   2.63279  -0.61514
C     1.16056   2.97716  -1.27930
C     1.22280   4.12337  -2.07248
C     0.11418   4.96387  -2.22065
C    -1.06513   4.64142  -1.54042
C    -1.14761   3.50176  -0.73999
C     0.84898   0.39928   0.05758
C     1.85898   0.35732   1.23794
O     1.01969  -0.11481   2.30215
C     0.66199  -1.35097   1.67971
C     2.02031  -1.92791   1.27556
C     2.21431  -3.38858   1.11876
C     2.77622  -0.83581   0.99688
C     4.07529  -0.65889   0.34290
C     5.04436  -1.80660   0.25241
O     4.35060   0.44267  -0.13935
C     0.01751  -0.88662   0.33269
H    -4.37563   0.05295  -2.73194
H    -2.79607  -0.22836  -3.50963
H    -3.37489   1.44353  -3.24223
H    -2.61647   1.34311  -1.01167
H    -2.62388  -2.59845   0.28479
H    -3.79008  -3.97129   1.76398
H    -2.77052  -3.29713   3.06899
H    -4.30634  -2.50172   2.64099
H    -1.32536   1.15043   1.71836
H     2.05192   2.36042  -1.16083
H     2.16209   4.36322  -2.57785
H     0.17239   5.85932  -2.84284
H    -1.94066   5.29067  -1.62556
H    -2.06527   3.27994  -0.19626
H     1.34627   0.40451  -0.91917
H     2.32866   1.31475   1.48214
H     0.04414  -1.97310   2.33508
H     3.19655  -3.66400   0.72075
H     1.43377  -3.78728   0.44698
H     2.06675  -3.89018   2.09059
H     6.02845  -1.42975  -0.05627
H     4.68782  -2.52465  -0.50483
H     5.12288  -2.34552   1.20769
H     0.10847  -1.65831  -0.43763
