21
Generated by autodE on: 2022-06-06. E = -499.581920 Ha
C     2.78184  -0.40632   0.58704
C     1.72518   0.65137   0.38804
O     1.95563   1.83608   0.63994
C     0.42797   0.19056  -0.10993
C    -0.76033   0.84106  -0.14558
C    -1.17226   2.20357   0.25647
C    -1.77089  -0.22884  -0.62498
C    -1.92707  -1.23817   0.53346
C    -0.76143  -1.89110   0.57177
C     0.08585  -1.25772  -0.55402
O    -0.93936  -0.97920  -1.52602
H     2.39522  -1.22404   1.21748
H     3.05076  -0.85393  -0.38420
H     3.67525   0.03419   1.04838
H    -0.33559   2.78717   0.65591
H    -1.60838   2.73758  -0.60596
H    -1.97554   2.13677   1.01202
H    -2.68323   0.14358  -1.10394
H    -2.79628  -1.31517   1.18550
H    -0.41346  -2.65799   1.26307
H     0.89833  -1.85798  -0.97485
