31
Generated by autodE on: 2022-06-06. E = -797.439913 Ha
C    -3.71138  -3.17163   0.19266
N    -3.11771  -1.86058   0.04253
C    -1.79886  -1.66610   0.15771
O    -0.98924  -2.58616   0.40059
C    -1.29284  -0.28046  -0.01904
N     0.04014  -0.23853   0.10074
N     0.82665   0.77728   0.03875
C     2.19791   0.52477   0.10415
C     3.02045   1.64147   0.35516
C     4.40347   1.49646   0.43851
C     4.99354   0.23911   0.26462
C     4.18358  -0.87061  -0.00316
C     2.79823  -0.73770  -0.09120
C    -2.13681   0.89383  -0.30520
O    -3.37636   0.78456  -0.44096
N    -1.51683   2.08258  -0.41301
C    -2.25823   3.29200  -0.70026
H    -3.50282  -3.59555   1.18826
H    -3.32468  -3.87821  -0.55963
H    -4.79761  -3.08501   0.06782
H    -3.67353  -1.02628  -0.16600
H     0.40383  -1.19859   0.28363
H     2.54954   2.61683   0.49236
H     5.02598   2.37113   0.64086
H     6.07790   0.12541   0.32668
H     4.63622  -1.85259  -0.15969
H     2.20036  -1.61744  -0.33892
H    -0.50111   2.09516  -0.28940
H    -3.01345   3.49385   0.07633
H    -2.78394   3.22225  -1.66632
H    -1.55791   4.13525  -0.73956
