44
Generated by autodE on: 2022-05-30. E = -1055.416648 Ha
C    -0.46031  -1.54959   4.04242
C    -1.23380  -0.81219   2.99209
O    -2.44311  -0.93967   2.87621
C    -0.46857   0.11050   2.03765
N     0.86332   0.43116   2.53800
C     1.71616   0.25439   1.61011
C     1.21777  -0.21936   0.26589
C     1.66586   0.78475  -0.77445
C     1.19207   2.10603  -0.69379
C     1.59973   3.07097  -1.61441
C     2.50301   2.73555  -2.62946
C     3.00182   1.43319  -2.70229
C     2.59059   0.46593  -1.77827
C     1.68945  -1.71439   0.07051
C     1.09063  -2.26791  -1.21232
C    -0.20677  -2.45352  -0.94208
C    -0.38570  -2.01419   0.50063
O     0.88600  -2.35819   1.07007
C    -0.34214  -0.42884   0.55622
C    -1.36736   0.18404  -0.39057
C    -2.62319   0.59613   0.08793
C    -3.59667   1.11562  -0.77135
C    -3.34088   1.23506  -2.13844
C    -2.10415   0.81403  -2.63488
C    -1.13560   0.29234  -1.77501
H     0.01813  -0.83097   4.72531
H     0.35117  -2.11936   3.56419
H    -1.12776  -2.21916   4.60006
H    -1.04519   1.04725   2.02459
H     2.78516   0.44682   1.76505
H     0.48578   2.37606   0.09393
H     1.21070   4.08925  -1.54039
H     2.82181   3.48856  -3.35398
H     3.71857   1.16293  -3.48138
H     3.00374  -0.53999  -1.85235
H     2.75780  -1.87661   0.25081
H     1.61638  -2.40018  -2.15653
H    -1.00649  -2.76895  -1.61030
H    -1.21347  -2.46568   1.05592
H    -2.86441   0.48247   1.14372
H    -4.56206   1.42440  -0.36280
H    -4.09720   1.64659  -2.81114
H    -1.88450   0.89292  -3.70242
H    -0.18826  -0.02839  -2.19810
