11
Generated by autodE on: 2022-05-30. E = -285.463896 Ha
C     2.35530   0.77373  -0.33145
N     1.46531   0.03953  -0.00978
C     0.44824  -0.64288   0.42840
C    -0.91676  -0.24061   0.12966
C    -1.11949   1.00661  -0.69780
O    -1.86631  -0.91054   0.54706
H     2.97048   0.79014  -1.23913
H     0.63905  -1.53248   1.03396
H    -0.60861   1.86917  -0.23953
H    -2.19350   1.21518  -0.78458
H    -0.68850   0.87494  -1.70369
