33
Generated by autodE on: 2022-05-30. E = -769.851083 Ha
C    -0.57380  -3.11049   0.09388
C     0.76225  -3.06858   0.10556
C     1.13237  -2.05545  -0.99992
O     0.08688  -2.30969  -1.95254
C    -0.98507  -2.11938  -1.01482
C    -0.64741  -0.68679  -0.50390
C    -1.67773   0.27830  -0.12810
C    -2.91959  -0.17629   0.36088
C    -3.91957   0.72780   0.72641
C    -3.70785   2.10314   0.59486
C    -2.48620   2.56777   0.09083
C    -1.48344   1.66883  -0.26733
C     0.70762  -0.65408  -0.47557
C     1.66746   0.30902   0.07030
C     1.36734   1.07658   1.21502
C     2.29837   1.97234   1.73868
C     3.55280   2.12201   1.13492
C     3.87010   1.35820   0.00793
C     2.94111   0.45611  -0.51508
H    -1.26294  -3.64604   0.74614
H     1.47197  -3.56080   0.76972
H     2.12940  -2.13793  -1.44452
H    -1.96848  -2.25220  -1.47787
H    -3.09750  -1.24829   0.47271
H    -4.87058   0.35407   1.11347
H    -4.49188   2.81031   0.87536
H    -2.31716   3.64066  -0.02952
H    -0.54116   2.04077  -0.67196
H     0.39926   0.95558   1.70271
H     2.04700   2.55325   2.62944
H     4.28075   2.82524   1.54621
H     4.84808   1.46364  -0.46784
H     3.20031  -0.13169  -1.39788
