44
Generated by autodE on: 2022-05-30. E = -1055.312580 Ha. Imaginary frequency = -335.8 cm-1
C    -0.29683  -1.45791   4.03588
C    -1.19235  -0.52859   3.25447
O    -2.42473  -0.66683   3.26137
C    -0.57298   0.50826   2.45326
N     0.74404   0.65846   2.42054
C     1.76475   0.51493   1.80671
C     1.03124  -0.35889  -0.17784
C     1.70277   0.70123  -0.94767
C     1.28392   2.04578  -0.85741
C     1.92397   3.04404  -1.58864
C     3.00365   2.72864  -2.42424
C     3.43782   1.40375  -2.51166
C     2.79901   0.39972  -1.77689
C     1.64302  -1.77753   0.00856
C     1.15173  -2.64662  -1.16841
C    -0.15375  -2.82988  -0.93801
C    -0.43270  -2.06787   0.37623
O     0.80947  -2.27466   1.06597
C    -0.33244  -0.56250   0.01136
C    -1.47917   0.10312  -0.64024
C    -2.73983   0.16943  -0.01360
C    -3.83974   0.72305  -0.67108
C    -3.71187   1.21666  -1.97412
C    -2.47315   1.13802  -2.61739
C    -1.37231   0.58195  -1.96194
H     0.33126  -0.89312   4.74296
H     0.37794  -1.98670   3.34554
H    -0.91262  -2.18278   4.58379
H    -1.17635   1.32945   2.06292
H     2.81488   0.79351   1.92425
H     0.44912   2.30188  -0.20250
H     1.58201   4.07852  -1.50415
H     3.50546   3.51274  -2.99589
H     4.28253   1.14507  -3.15489
H     3.15345  -0.62943  -1.86047
H     2.70630  -1.82501   0.26709
H     1.75870  -2.95940  -2.01751
H    -0.90487  -3.32780  -1.55059
H    -1.29664  -2.37907   0.97330
H    -2.85189  -0.19655   1.00796
H    -4.80446   0.77215  -0.15978
H    -4.57311   1.65229  -2.48633
H    -2.36271   1.50279  -3.64173
H    -0.42014   0.50290  -2.48631
