38
Generated by autodE on: 2022-10-07. E = -1030.544744 Ha
C    -0.03909  -2.87397   0.43474
N    -0.39168  -1.47302   0.49382
C    -1.83490  -1.09404   0.44290
C    -2.37308  -1.07629   1.87919
C    -2.68243  -2.04008  -0.41719
C    -1.80116   0.32333  -0.20953
C    -2.84801   1.30672   0.34416
O    -4.05742   1.03310   0.10601
O    -2.43899   2.30644   0.99126
C    -0.36054   0.78819  -0.09211
C     0.07448   1.89761  -1.07082
O     1.00777   2.65043  -0.68645
O    -0.50421   1.94928  -2.18795
C     0.43109  -0.54096  -0.25774
C     0.46291  -0.94850  -1.69554
N     0.43657  -1.38387  -2.77240
C     1.86005  -0.41851   0.27241
C     2.92091  -0.06368  -0.56982
C     4.20543   0.12489  -0.05137
C     4.44269  -0.04000   1.31603
C     3.38543  -0.39283   2.16136
C     2.10211  -0.57948   1.64284
H    -0.63498  -3.43827   1.16695
H    -0.19298  -3.33804  -0.56034
H     1.02075  -3.00377   0.70259
H    -2.19428  -2.04840   2.36508
H    -1.87533  -0.29488   2.47275
H    -3.45516  -0.88182   1.89081
H    -2.25056  -2.15731  -1.42245
H    -3.68685  -1.60645  -0.52897
H    -2.78622  -3.03650   0.03911
H    -2.02567   0.20655  -1.27989
H    -0.15119   1.13423   0.92763
H     2.74599   0.07210  -1.63907
H     5.02308   0.40214  -0.72093
H     5.44699   0.10420   1.72144
H     3.56034  -0.52480   3.23196
H     1.27515  -0.85282   2.29871
