28
Generated by autodE on: 2022-10-07. E = -575.434150 Ha
C    -1.70495   1.64467  -0.63711
C    -2.17198   0.47173   0.14040
C    -3.39369   0.62395   0.98493
N    -1.52402  -0.67317   0.08058
C    -2.09859  -1.89289   0.67324
C    -0.21218  -0.78060  -0.46344
C     0.00705  -1.83205  -1.35918
N     0.20582  -2.71361  -2.11308
C     0.88209   0.06823  -0.02252
C     0.80242   0.89448   1.12668
C     1.89375   1.65518   1.54962
C     3.10404   1.63318   0.84887
C     3.20165   0.82191  -0.28972
C     2.11860   0.05938  -0.71952
H    -1.02594   2.27383  -0.03326
H    -1.14780   1.33063  -1.53152
H    -2.57017   2.26563  -0.91116
H    -4.29172   0.35422   0.40025
H    -3.37291  -0.00237   1.88603
H    -3.50411   1.67639   1.28086
H    -1.69937  -2.75776   0.13132
H    -1.79940  -1.96805   1.72891
H    -3.19069  -1.89401   0.58920
H    -0.11630   0.92580   1.71562
H     1.79238   2.27349   2.44577
H     3.95250   2.23594   1.17996
H     4.13571   0.78679  -0.85722
H     2.22112  -0.55998  -1.61374
