28
Generated by autodE on: 2022-10-13. E = -575.434146 Ha
C    -3.43478  -0.23076   1.00878
C    -2.21558  -0.17548   0.14920
C    -2.11723   0.90126  -0.86553
N    -1.25228  -1.06398   0.27945
C    -1.44130  -2.25529   1.12460
C     0.03698  -0.88288  -0.29708
C     0.57825  -1.98119  -0.97306
N     1.04786  -2.89703  -1.54366
C     0.81951   0.32279  -0.08149
C     2.01611   0.53908  -0.81379
C     2.81488   1.65723  -0.58816
C     2.45808   2.61534   0.37038
C     1.28188   2.42046   1.10169
C     0.47455   1.30303   0.88257
H    -4.20042  -0.87205   0.53590
H    -3.86519   0.77624   1.09758
H    -3.23269  -0.62540   2.01288
H    -1.66101   1.81113  -0.43486
H    -3.12715   1.17090  -1.20703
H    -1.48615   0.59096  -1.71100
H    -1.15124  -2.02452   2.16010
H    -2.48070  -2.59917   1.09182
H    -0.79080  -3.05129   0.74482
H     2.31652  -0.18967  -1.57037
H     3.72871   1.78544  -1.17487
H     3.08254   3.49505   0.54056
H     0.98291   3.14868   1.86059
H    -0.42397   1.17948   1.48998
