10
Generated by autodE on: 2022-10-07. E = -455.051696 Ha
O    -2.24430   0.97046   0.73968
C    -1.91297  -0.20916   0.43762
O    -2.67987  -1.21228   0.43070
C    -0.47442  -0.47157   0.04129
C     0.47442   0.47157  -0.04128
C     1.91297   0.20915  -0.43761
O     2.67986   1.21229  -0.43075
O     2.24430  -0.97047  -0.73964
H    -0.21739  -1.50960  -0.19599
H     0.21740   1.50961   0.19600
