17
Generated by autodE on: 2022-05-31. E = -471.410361 Ha
F     1.34723   1.81318  -0.04532
C     0.64516   0.70187   0.21111
C     0.75155  -0.49437  -0.37991
F     1.58470  -0.85606  -1.36413
C    -0.42399  -1.33426   0.06528
C    -1.68919  -0.71603  -0.61901
C    -1.81304   0.67646   0.06936
C    -0.60337   0.68521   1.06328
C    -0.59201  -0.79548   1.50318
H    -0.29960  -2.41652  -0.06604
H    -2.57032  -1.34291  -0.41725
H    -1.56475  -0.64824  -1.70905
H    -1.75753   1.51419  -0.64014
H    -2.75780   0.76629   0.62562
H    -0.64336   1.45295   1.84622
H    -1.53805  -1.10975   1.96925
H     0.25429  -1.04438   2.15879
