53
Generated by autodE on: 2022-06-05. E = -1260.203053 Ha
C     3.47842  -2.37623   2.13969
N     2.91090  -1.47128   1.16078
C     1.60217  -1.45813   0.90451
O     0.80809  -2.27373   1.38529
C     1.03055  -0.32957  -0.01742
C     2.10923   0.32877  -0.91300
O     3.21770   0.64672  -0.45278
N     1.75306   0.58581  -2.17207
C     2.60161   1.33353  -3.07862
N    -0.08204  -0.84152  -0.79096
C     0.17489  -2.01382  -1.61746
C    -1.36468  -0.66284  -0.12179
C    -1.84358  -1.87481   0.76320
C    -1.99989  -3.22934   0.12560
O    -2.15855  -1.70663   1.92651
C    -2.47800  -0.37715  -1.16462
C    -3.90077  -0.46096  -0.68887
O    -2.19313  -0.09634  -2.31258
C    -1.17865   0.57992   0.78927
C    -1.68328   1.94995   0.28122
C    -1.53856   2.95597   1.44428
C    -0.00656   3.22948   1.48064
C     0.54621   2.28011   0.39725
C    -0.56040   2.39002  -0.66692
C     0.38101   0.79827   0.89899
C     0.85739   0.66115   2.27312
N     1.22803   0.56877   3.36940
H     4.57182  -2.29302   2.11223
H     3.19356  -3.41612   1.92250
H     3.12745  -2.13162   3.15662
H     3.45464  -0.69625   0.77485
H     0.79881   0.35655  -2.43826
H     2.64964   2.39819  -2.79512
H     2.19441   1.25440  -4.09398
H     3.62383   0.92912  -3.06809
H     0.39904  -2.92536  -1.04122
H     1.03544  -1.82146  -2.27188
H    -0.68938  -2.20473  -2.26423
H    -2.24622  -3.17868  -0.94205
H    -2.77722  -3.78315   0.66936
H    -1.05103  -3.77556   0.23197
H    -4.21483  -1.51834  -0.72190
H    -4.55148   0.11314  -1.36122
H    -4.01283  -0.11980   0.34915
H    -1.61788   0.34499   1.76231
H    -2.69470   1.92057  -0.14023
H    -2.10379   3.87420   1.23032
H    -1.91788   2.54101   2.38964
H     0.44304   3.06639   2.46891
H     0.21976   4.26404   1.18630
H     1.57224   2.51157   0.09424
H    -0.67685   3.42391  -1.02320
H    -0.44090   1.72978  -1.52955
