35
Generated by autodE on: 2022-07-27. E = -894.995558 Ha
C     2.52769  -0.41731   2.89740
N     2.10555  -0.36623   1.51036
C     0.96674   0.24606   1.15447
O     0.24613   0.87400   1.93026
C     0.66876   0.20579  -0.32888
C     1.86118   0.21390  -1.25858
O     2.44014  -0.86496  -1.43338
N     2.24010   1.38616  -1.76268
C     3.38091   1.51789  -2.65365
N    -0.54734   0.15442  -0.79829
C    -0.77832   0.41820  -2.24002
C    -1.64142  -0.26022  -0.00106
C    -1.53209  -1.47067   0.78067
C    -0.40463  -2.46221   0.52795
O    -2.38585  -1.79010   1.62533
C    -2.78594   0.62624  -0.03328
C    -4.05246   0.25902   0.70067
O    -2.73496   1.70169  -0.65758
H     3.51131  -0.89828   2.94998
H     1.81242  -0.99153   3.50870
H     2.59937   0.59721   3.31586
H     2.58489  -0.93795   0.81794
H     1.65480   2.19923  -1.58516
H     4.17922   0.83500  -2.33484
H     3.74774   2.55066  -2.61228
H     3.10681   1.27695  -3.69332
H    -1.81561   0.17521  -2.47737
H    -0.11391  -0.23562  -2.82166
H    -0.57230   1.46906  -2.47082
H     0.20899  -2.27886  -0.36187
H    -0.87470  -3.45344   0.44163
H     0.25617  -2.49709   1.40808
H    -4.82844   0.98748   0.42729
H    -3.88623   0.28991   1.78794
H    -4.38397  -0.76187   0.46443
