35
Generated by autodE on: 2022-06-05. E = -894.996609 Ha
C    -2.88878   2.70019  -2.22354
N    -1.99114   2.06973  -1.27022
C    -1.49152   0.84908  -1.46724
O    -1.76152   0.11075  -2.41986
C    -0.59295   0.29239  -0.38440
C    -1.26305  -0.58044   0.65498
O    -0.92877  -0.51747   1.83693
N    -2.29698  -1.30185   0.19627
C    -3.01509  -2.21586   1.06320
N     0.66578   0.61062  -0.32790
C     1.18625   1.65853  -1.24067
C     1.61625  -0.14209   0.42825
C     1.54861  -1.56918   0.23495
C     2.65090  -2.47623   0.74070
O     0.60206  -2.10102  -0.38086
C     2.48328   0.66247   1.25111
C     3.59879   0.05224   2.07161
O     2.30118   1.89425   1.32875
H    -2.33256   3.15399  -3.05963
H    -3.46139   3.48265  -1.71091
H    -3.58080   1.95120  -2.63069
H    -1.65181   2.61059  -0.47831
H    -2.41402  -1.37994  -0.81131
H    -2.38993  -3.08182   1.33837
H    -3.90969  -2.57409   0.53967
H    -3.31927  -1.70414   1.98693
H     2.27731   1.63116  -1.21765
H     0.83061   2.64542  -0.92598
H     0.84215   1.43691  -2.25995
H     2.60660  -2.56265   1.83696
H     3.65341  -2.12175   0.46938
H     2.48469  -3.47134   0.30830
H     4.36622  -0.41059   1.43452
H     3.22536  -0.72027   2.75837
H     4.05986   0.85873   2.65656
