18
Generated by autodE on: 2022-06-05. E = -365.147276 Ha
N     3.16040  -0.37630  -0.80662
C     2.02970  -0.14562  -0.63811
C     0.64722   0.09901  -0.44673
C     0.04684   1.29710  -0.25599
C    -1.39962   1.01902   0.07920
C    -1.38063   0.40429   1.52268
C    -0.70143  -0.97801   1.30780
C    -0.40810  -0.98695  -0.22491
C    -1.65160  -0.25114  -0.76398
H     0.53443   2.27267  -0.23028
H    -2.08944   1.86217  -0.04519
H    -2.41280   0.29410   1.88639
H    -0.83982   1.04631   2.23212
H    -1.38317  -1.80303   1.56138
H     0.21726  -1.10491   1.89765
H    -0.16810  -1.96964  -0.64722
H    -1.60666  -0.06502  -1.84702
H    -2.59492  -0.75746  -0.50969
