53
Generated by autodE on: 2022-06-05. E = -1260.118067 Ha. Imaginary frequency = -238.7 cm-1
C     3.10086  -2.33999   2.44010
N     2.66764  -1.76726   1.18166
C     1.37009  -1.50253   0.95913
O     0.50915  -1.74362   1.81881
C     1.04221  -0.87829  -0.36425
C     2.21011  -0.55513  -1.28068
O     3.10795  -1.38116  -1.50480
N     2.21908   0.67502  -1.80266
C     3.22816   1.09269  -2.75790
N    -0.17347  -0.99463  -0.95126
C    -0.18965  -1.04553  -2.44102
C    -1.36927  -0.99808  -0.22466
C    -1.59314  -2.09470   0.80497
C    -1.16077  -3.47895   0.38570
O    -2.30944  -1.92875   1.77988
C    -2.61386  -0.59206  -0.94476
C    -3.94934  -0.86879  -0.29731
O    -2.57873   0.02022  -2.00928
C    -1.11065   0.80078   1.04411
C    -1.86716   1.94154   0.37633
C    -1.76982   3.14727   1.36336
C    -0.28304   3.58567   1.24790
C     0.30327   2.53704   0.25859
C    -0.87291   2.37291  -0.71864
C     0.25000   1.19643   1.00870
C     1.16213   1.01086   2.07515
N     1.94504   0.93881   2.93904
H     4.19433  -2.42388   2.42927
H     2.66799  -3.34124   2.60019
H     2.79911  -1.69712   3.27905
H     3.31143  -1.72052   0.39444
H     1.44461   1.29886  -1.60379
H     4.23629   0.91430  -2.35639
H     3.10353   2.16405  -2.95493
H     3.13207   0.53864  -3.70591
H    -1.06163  -1.61928  -2.76094
H     0.70734  -1.58427  -2.76530
H    -0.22147  -0.05287  -2.89949
H    -0.25008  -3.48976  -0.22505
H    -1.97922  -3.89474  -0.22835
H    -1.03472  -4.11183   1.27418
H    -4.12940  -1.95238  -0.22018
H    -4.72705  -0.41157  -0.92169
H    -3.99618  -0.46231   0.72136
H    -1.53649   0.25753   1.88717
H    -2.89220   1.72094   0.06335
H    -2.45237   3.94568   1.03667
H    -2.05564   2.85903   2.38527
H     0.24813   3.58217   2.21050
H    -0.19282   4.59420   0.81714
H     1.28384   2.80913  -0.15157
H    -1.15375   3.31941  -1.20268
H    -0.72026   1.60796  -1.48839
