53
Generated by autodE on: 2022-10-22. E = -1483.631880 Ha
C    -0.04818   1.93955   7.47203
O    -0.23703   0.57063   7.80006
C    -0.34112  -0.36823   6.74607
O    -1.37950  -0.01051   5.87298
C    -2.65075   0.21091   6.48105
C     0.98760  -0.40874   5.96795
C     0.96430  -0.87215   4.51699
C     0.61757  -2.33739   4.27976
C    -0.86174  -2.69934   4.49039
C    -1.24712  -3.56698   5.73039
C    -0.44346  -4.88165   5.64599
C    -0.89035  -6.00966   4.94158
C    -0.09077  -7.15253   4.84118
C     1.17642  -7.18670   5.42679
C     1.63811  -6.06352   6.11770
C     0.83456  -4.92738   6.22552
C    -2.77587  -3.80917   5.56853
F    -3.13077  -4.19581   4.32982
F    -3.46694  -2.68224   5.82014
F    -3.25427  -4.75324   6.40426
C    -1.04680  -2.92755   7.10716
C    -0.65861  -1.68528   7.48489
N    -0.50426  -1.63542   8.90836
C    -1.11143  -0.73994   9.70191
N    -1.56638  -0.04526  10.52333
N    -0.50283  -3.00211   9.35890
C    -1.39972  -3.69485   8.43195
C    -1.19384  -5.20005   8.59838
C    -2.82323  -3.36956   8.76760
N    -3.88933  -3.05613   9.10266
H    -0.55174   2.20796   6.53164
H    -0.49171   2.52081   8.29331
H     1.02171   2.19429   7.39646
H    -2.92598  -0.60661   7.16511
H    -2.67040   1.16118   7.03687
H    -3.38410   0.25431   5.66544
H     1.69217  -1.01383   6.55967
H     1.37643   0.61874   5.97799
H     0.28004  -0.22844   3.94124
H     1.97261  -0.68676   4.11199
H     0.87003  -2.57796   3.23575
H     1.27717  -2.96882   4.89044
H    -1.47122  -1.78855   4.49924
H    -1.18969  -3.29224   3.62920
H    -1.86608  -6.02138   4.45989
H    -0.46767  -8.02113   4.29616
H     1.79881  -8.08076   5.34575
H     2.62619  -6.06987   6.58343
H     1.20066  -4.06982   6.79104
H    -0.82486  -3.04014  10.32884
H    -1.78052  -5.77745   7.87771
H    -1.51880  -5.47691   9.61286
H    -0.13377  -5.44690   8.48789
