26
Generated by autodE on: 2022-06-12. E = -3659.399887 Ha
F    -0.97755   0.71469  -3.25905
C    -1.25337   0.43094  -1.95291
Br   -2.51523   1.86667  -1.32221
C    -0.08270   0.47273  -1.09757
C     0.59943   0.12278  -0.16158
C     1.08590  -0.65925   0.96779
C     2.39234  -1.39326   0.57244
F     2.90166  -2.07424   1.60636
F     2.16642  -2.26706  -0.41672
F     3.33132  -0.54059   0.14251
C     1.34182   0.26289   2.18685
F     2.36517   1.10113   1.97682
F     0.25681   1.00848   2.43425
F     1.61087  -0.44258   3.29112
C    -0.04780  -1.68527   1.32933
C    -0.84013  -2.30638   0.16113
C    -2.04862  -1.51379  -0.41327
C    -1.91265  -0.94481  -1.83759
H     0.42026  -2.48095   1.92626
H    -0.75063  -1.16305   1.99360
H    -1.23394  -3.25147   0.56343
H    -0.16001  -2.59715  -0.65174
H    -2.34716  -0.71043   0.28025
H    -2.90584  -2.20155  -0.44694
H    -2.89453  -0.88063  -2.32913
H    -1.28591  -1.61395  -2.45149
