55
Generated by autodE on: 2022-06-12. E = -4459.421591 Ha. Imaginary frequency = -213.0 cm-1
C    -2.43541   0.57053  -2.23988
N    -3.56351   0.44032  -1.34180
C    -4.00483   1.48289  -0.61949
O    -3.42326   2.57549  -0.57231
C    -5.27489   1.27097   0.14706
C    -5.97142  -0.01906   0.29009
O    -5.64451  -1.05431  -0.27117
O    -7.02700   0.06700   1.10662
C    -7.80250  -1.12664   1.28266
N    -5.54571   2.20080   1.04126
C    -5.88837   3.29146   1.38165
C    -5.82490   4.23216   2.46488
C    -7.00017   4.69871   3.07752
C    -6.90658   5.62461   4.11445
C    -5.65628   6.10790   4.51507
C    -4.48826   5.64875   3.89389
C    -4.56278   4.70343   2.87454
C    -6.67065   3.89222  -0.79869
C    -6.68509   2.85896  -1.48303
C    -7.20827   2.30011  -2.75027
C    -7.46728   0.77522  -2.69634
F    -8.16220   0.45331  -1.59132
F    -6.33349   0.06295  -2.68520
F    -8.18174   0.35103  -3.74742
C    -6.18330   2.60144  -3.87641
F    -4.97226   2.09022  -3.60575
F    -6.58278   2.09226  -5.05206
F    -6.02322   3.91874  -4.04007
C    -8.54832   3.04630  -3.06743
C    -9.53159   3.21774  -1.88346
C    -9.70181   4.65562  -1.35523
C    -8.70291   5.22096  -0.32646
C    -7.25461   5.24088  -0.80760
F    -7.21659   5.72367  -2.10567
Br   -6.17431   6.59285   0.20321
H    -2.64515   1.28352  -3.05399
H    -1.54151   0.92375  -1.70310
H    -2.21725  -0.41089  -2.67899
H    -4.13630  -0.40176  -1.34628
H    -8.20480  -1.46737   0.31821
H    -8.62008  -0.85518   1.96018
H    -7.18957  -1.92400   1.72712
H    -7.97039   4.33086   2.74169
H    -7.81496   5.98170   4.60389
H    -5.59030   6.84691   5.31675
H    -3.51379   6.02664   4.21041
H    -3.66502   4.33766   2.37332
H    -9.03385   2.51623  -3.89702
H    -8.26695   4.03442  -3.44815
H   -10.52042   2.89507  -2.24121
H    -9.28173   2.53933  -1.05498
H   -10.68451   4.71648  -0.86143
H    -9.75203   5.34559  -2.21281
H    -9.00487   6.25187  -0.09097
H    -8.73780   4.64510   0.60917
