59
Generated by autodE on: 2022-06-24. E = -1400.672961 Ha
C     4.34162  -3.22271  -0.98384
C     3.42182  -2.69956  -0.14800
C     3.25455  -3.19945   1.26298
C     2.53879  -1.62551  -0.61589
C     1.59374  -1.02181   0.12667
C     0.68823   0.04129  -0.40183
C    -0.85694  -0.28714  -0.29084
C    -1.45582  -0.56539  -1.68488
O    -2.53996  -0.14036  -2.03316
O    -0.68195  -1.32078  -2.45608
C    -1.17988  -1.64332  -3.76559
C    -1.17496  -1.49467   0.60851
C    -1.70454  -1.29622   1.88972
C    -1.93683  -2.38029   2.74204
C    -1.64347  -3.68092   2.32451
C    -1.12102  -3.88844   1.04384
C    -0.89067  -2.80571   0.19174
N    -1.44786   0.93389   0.24453
C    -0.56589   2.06337   0.00505
C    -0.81498   3.24831   0.93350
O    -0.24247   4.31064   0.78965
O    -1.67426   2.99441   1.91160
C    -1.90470   4.05167   2.85776
C    -0.80333   2.52814  -1.44578
O    -0.23572   2.10801  -2.43300
O    -1.85834   3.34391  -1.50245
C    -2.35819   3.67422  -2.80907
C     0.84612   1.44031   0.27883
C     1.06055   1.31227   1.79718
C     2.01272   2.22868  -0.31426
H     5.00861  -4.02950  -0.66708
H     4.44839  -2.85438  -2.00881
H     2.23177  -3.57902   1.42638
H     3.96567  -4.00694   1.48730
H     3.40851  -2.38785   1.99343
H     2.66231  -1.32087  -1.66172
H     1.45053  -1.32231   1.16570
H     0.91561   0.18026  -1.46233
H    -0.41036  -2.26682  -4.23414
H    -2.12698  -2.19548  -3.68841
H    -1.33312  -0.72251  -4.34577
H    -1.92637  -0.27987   2.21366
H    -2.34810  -2.20376   3.73900
H    -1.82227  -4.52813   2.99083
H    -0.88825  -4.90024   0.70332
H    -0.47317  -2.98459  -0.79822
H    -2.40057   1.08092  -0.08460
H    -2.64087   3.66217   3.56974
H    -0.96964   4.30798   3.37606
H    -2.29827   4.94176   2.34699
H    -3.20961   4.34408  -2.64482
H    -2.68291   2.75970  -3.32591
H    -1.58202   4.17948  -3.40055
H     1.11931   2.30439   2.26933
H     2.01649   0.80734   1.99368
H     0.26309   0.73816   2.28584
H     2.08811   3.22139   0.15300
H     2.95112   1.68816  -0.11618
H     1.91681   2.35962  -1.39905
