36
Generated by autodE on: 2022-06-24. E = -1049.114340 Ha
C    -3.46163   2.29176  -1.73326
O    -3.06042   1.00796  -1.24331
C    -1.82890   0.93060  -0.71416
O    -1.07595   1.90412  -0.68697
C    -1.48033  -0.36415  -0.16956
N    -0.20991  -0.56587   0.33213
C     0.95924  -0.01059   0.10662
C     1.15182   0.82431  -1.12526
O     0.80061   0.45020  -2.22456
O     1.83210   1.93550  -0.88082
C     2.10697   2.77976  -2.01113
C     2.09689  -0.34633   0.96194
C     3.41677  -0.24114   0.47219
C     4.49717  -0.60203   1.27392
C     4.28697  -1.06849   2.57615
C     2.98415  -1.16840   3.07562
C     1.89766  -0.80653   2.28180
C    -2.36133  -1.45812   0.21214
O    -1.95276  -2.42022   0.86680
O    -3.63544  -1.35203  -0.18023
C    -4.51475  -2.41226   0.21287
H    -2.79008   2.63046  -2.53591
H    -4.47777   2.15902  -2.12338
H    -3.46345   3.03750  -0.92462
H    -0.21761  -1.34231   1.00930
H     2.70916   2.23856  -2.75459
H     1.16389   3.11156  -2.46778
H     2.66473   3.63663  -1.61763
H     3.60003   0.10635  -0.54517
H     5.51156  -0.52229   0.87735
H     5.13729  -1.34541   3.20319
H     2.81285  -1.51502   4.09697
H     0.89215  -0.85236   2.70556
H    -5.49658  -2.15581  -0.20241
H    -4.57547  -2.48310   1.30882
H    -4.17225  -3.37491  -0.19419
