36
Generated by autodE on: 2022-07-27. E = -1049.113547 Ha
C     1.57257   1.98404   3.84470
O     1.12021   1.40364   2.61903
C     0.55412   2.24821   1.71177
O     0.49088   3.45195   1.91279
C     0.06214   1.51780   0.55583
N     0.16755   0.14176   0.63777
C     0.08659  -0.81849  -0.25749
C     0.20059  -0.47966  -1.71471
O     1.06560   0.25202  -2.14828
O    -0.67401  -1.14591  -2.45486
C    -0.61790  -0.91815  -3.87295
C     0.04808  -2.21221   0.18042
C    -0.43510  -2.55099   1.46249
C    -0.42325  -3.87555   1.89499
C     0.05790  -4.88614   1.05604
C     0.52782  -4.56339  -0.22196
C     0.52253  -3.24168  -0.66110
C    -0.71245   2.10214  -0.51878
O    -1.38054   1.44483  -1.31664
O    -0.66775   3.44299  -0.57180
C    -1.47545   4.06709  -1.57549
H     1.98714   1.15870   4.43572
H     0.73882   2.45442   4.38690
H     2.35048   2.73761   3.65325
H     0.35324  -0.17134   1.59752
H     0.36431  -1.21302  -4.26842
H    -0.80163   0.14392  -4.08792
H    -1.40791  -1.53983  -4.30833
H    -0.85264  -1.78074   2.11453
H    -0.80753  -4.12186   2.88708
H     0.05910  -5.92465   1.39414
H     0.90583  -5.34780  -0.88106
H     0.90634  -3.00579  -1.65437
H    -1.30650   5.14517  -1.46780
H    -1.17410   3.73581  -2.58016
H    -2.53998   3.83589  -1.42251
