62
Generated by autodE on: 2022-06-08. E = -1453.947469 Ha
C     3.43843   2.97820  -1.64224
N     2.33509   2.32155  -0.96654
C     1.98789   1.05578  -1.25590
O     2.60365   0.39596  -2.09674
C     0.87871   0.44496  -0.38429
C     1.56458   0.01232   0.96887
C     2.89007  -0.71941   0.67679
C     2.40702  -2.01966  -0.02166
C     0.86108  -1.94447   0.10184
C     0.71635  -1.18005   1.42842
C     0.28108  -0.92744  -0.92212
C     0.54468  -1.22140  -2.41472
C     1.00924  -2.58613  -2.84982
O     0.25727  -0.37924  -3.24642
C    -1.31946  -0.76260  -0.75840
C    -2.04916  -0.57661  -2.05066
N    -2.77662  -0.41045  -2.93970
C    -1.99237  -1.99585  -0.12422
C    -2.12375  -3.16672  -0.88604
C    -2.69493  -4.31323  -0.33323
C    -3.15777  -4.29992   0.98676
C    -3.04540  -3.13174   1.74356
C    -2.46592  -1.98473   1.19188
N    -1.48112   0.44778   0.04271
C    -2.81735   1.03000   0.11163
C    -0.38732   1.38420  -0.19802
C    -0.62878   2.11464  -1.48062
N    -0.90404   2.66117  -2.46574
C    -0.30863   2.41335   0.94111
C    -0.51687   1.99148   2.26368
C    -0.42021   2.89741   3.31960
C    -0.11755   4.24102   3.07378
C     0.06817   4.67316   1.76028
C    -0.03694   3.76697   0.69958
H     4.39811   2.48344  -1.42076
H     3.29101   2.96477  -2.73259
H     3.48827   4.01989  -1.30256
H     1.88020   2.81092  -0.20323
H     1.67267   0.85181   1.66270
H     3.37146  -0.94034   1.64016
H     3.60984  -0.14761   0.07992
H     2.76018  -2.08189  -1.05545
H     2.76481  -2.91759   0.50194
H     0.37395  -2.92251   0.05475
H     1.18133  -1.71501   2.26917
H    -0.30773  -0.92599   1.69805
H     2.09044  -2.53956  -3.05673
H     0.50465  -2.83414  -3.79406
H     0.83075  -3.36919  -2.10449
H    -1.76890  -3.18918  -1.91868
H    -2.78063  -5.21883  -0.93780
H    -3.60913  -5.19527   1.42025
H    -3.41066  -3.10607   2.77263
H    -2.38457  -1.08126   1.79444
H    -3.55652   0.23482   0.26269
H    -2.87675   1.71879   0.96393
H    -3.09138   1.58136  -0.80661
H    -0.77057   0.95262   2.46565
H    -0.58588   2.55025   4.34185
H    -0.04027   4.94826   3.90259
H     0.28514   5.72253   1.54967
H     0.08156   4.13490  -0.32069
