29
Generated by autodE on: 2022-06-08. E = -633.710934 Ha
C     3.39602  -1.67863  -0.51418
N     2.27246  -0.85500  -0.12213
C     1.05019  -1.38404   0.04245
O     0.82658  -2.60293  -0.06805
C    -0.07170  -0.46924   0.40513
C    -0.30786   0.86234   0.19670
C     0.53791   1.89486  -0.43257
C    -0.15935   3.11118  -0.97661
O     1.76727   1.80560  -0.49747
C    -1.77192   1.10379   0.56129
C    -2.61386   0.40996  -0.55864
C    -2.32881  -1.09683  -0.31758
C    -1.36443  -1.07531   0.91569
C    -1.94128   0.10357   1.71842
H     3.53470  -2.51382   0.18970
H     3.25680  -2.11134  -1.51960
H     4.30518  -1.06452  -0.51805
H     2.34230   0.16851  -0.14171
H    -1.01599   2.82683  -1.60673
H     0.55143   3.72131  -1.54836
H    -0.56034   3.70799  -0.14056
H    -2.04476   2.14706   0.75286
H    -3.67937   0.64583  -0.42147
H    -2.31815   0.75230  -1.56016
H    -3.24549  -1.64598  -0.05712
H    -1.86520  -1.59906  -1.17778
H    -1.25031  -2.04329   1.41467
H    -2.99104  -0.04526   2.01246
H    -1.33841   0.36065   2.60193
