33
Generated by autodE on: 2022-07-27. E = -820.197147 Ha
C    -0.90510   0.21257   1.41209
N    -0.14277   0.06987   0.15396
C     0.49875   1.17629  -0.33893
C     0.59350   1.33394  -1.73826
N     0.64366   1.53683  -2.88939
C     1.06731   2.21931   0.52260
C     1.61280   1.91749   1.78853
C     2.16346   2.92384   2.58138
C     2.20160   4.24551   2.12482
C     1.68466   4.55302   0.86106
C     1.12299   3.55433   0.06799
C    -0.19507  -1.11642  -0.50429
C     0.73192  -1.36106  -1.54171
N     1.51360  -1.64204  -2.36489
C    -1.17172  -2.20021  -0.24010
C    -1.91094  -2.70434  -1.32874
C    -2.80701  -3.75858  -1.15197
C    -2.97458  -4.33322   0.11185
C    -2.23097  -3.85370   1.19455
C    -1.33077  -2.80095   1.02359
H    -0.39393  -0.28995   2.24041
H    -1.89104  -0.24281   1.26277
H    -1.02902   1.27532   1.63246
H     1.62507   0.88771   2.14712
H     2.58032   2.66947   3.55867
H     2.63877   5.03003   2.74648
H     1.71295   5.58106   0.49266
H     0.71298   3.80680  -0.91220
H    -1.78544  -2.25547  -2.31647
H    -3.37935  -4.12977  -2.00510
H    -3.67652  -5.15854   0.25099
H    -2.34192  -4.30990   2.18081
H    -0.73224  -2.46621   1.87034
