33
Generated by autodE on: 2022-06-08. E = -820.205286 Ha
C     0.57317   1.74672  -2.84061
N     0.30829   0.95364  -1.61899
C    -0.60811   1.46638  -0.75030
C    -0.93043   2.83780  -0.88288
N    -1.23450   3.96441  -0.95450
C    -1.28172   0.71152   0.31169
C    -1.64934  -0.63972   0.14405
C    -2.26674  -1.33619   1.17996
C    -2.53431  -0.70370   2.39992
C    -2.19927   0.64360   2.56724
C    -1.58042   1.34598   1.53402
C     1.02814  -0.18953  -1.42513
C     1.59048  -0.82872  -2.55547
N     2.08450  -1.41114  -3.44107
C     1.24227  -0.82981  -0.12233
C     1.41656  -0.07304   1.05497
C     1.59697  -0.70755   2.28120
C     1.61018  -2.10520   2.36173
C     1.46480  -2.86539   1.19713
C     1.28418  -2.23560  -0.03349
H     1.13655   1.14376  -3.55736
H     1.16966   2.62864  -2.57029
H    -0.37667   2.05748  -3.28925
H    -1.44987  -1.14726  -0.79985
H    -2.53864  -2.38409   1.03511
H    -3.00701  -1.25829   3.21353
H    -2.40944   1.14859   3.51275
H    -1.30129   2.39153   1.68013
H     1.40756   1.01611   1.00982
H     1.72429  -0.10577   3.18376
H     1.73839  -2.59796   3.32805
H     1.47956  -3.95640   1.24800
H     1.14949  -2.83596  -0.93553
