46
Generated by autodE on: 2022-06-21. E = -960.729469 Ha
C    -3.81752  -0.27351   0.44949
C    -2.95387   0.25184  -0.42738
C    -3.25724   1.48293  -1.23604
C    -1.59707  -0.35819  -0.70360
C    -0.41797   0.60893  -0.41135
C     0.07809   1.38165  -1.59359
C     0.55267   2.64110  -1.58407
C     0.62157   3.51262  -0.35934
C     1.07884   3.27739  -2.84185
C     0.64036  -0.35195   0.16843
C     1.64788   0.32132   1.05116
C     1.34208   0.64812   2.38043
C     2.25540   1.36648   3.15532
C     3.47502   1.77797   2.60606
C     3.78227   1.45658   1.28046
C     2.87493   0.72510   0.50882
O    -0.15922  -1.27990   0.92412
N    -1.28654  -1.54954   0.11064
C    -1.25047  -2.79002  -0.54184
O    -2.06604  -3.01943  -1.44208
N    -0.35049  -3.67349  -0.06695
C    -0.21608  -5.01399  -0.59435
H    -4.79480   0.18820   0.61780
H    -3.57454  -1.17431   1.01659
H    -4.29335   1.81733  -1.08437
H    -2.58213   2.31259  -0.96717
H    -3.10115   1.29469  -2.31199
H    -1.56929  -0.65543  -1.76434
H    -0.71643   1.28106   0.40409
H     0.09752   0.82653  -2.53868
H     1.67396   3.73508  -0.11097
H     0.15979   3.05967   0.52717
H     0.13368   4.48389  -0.55039
H     1.02030   2.59890  -3.70566
H     2.13088   3.58673  -2.71167
H     0.51464   4.19635  -3.08033
H     1.14081  -0.89283  -0.65372
H     0.38477   0.33892   2.80379
H     2.01202   1.61195   4.19186
H     4.18507   2.34623   3.21157
H     4.73386   1.77190   0.84606
H     3.11413   0.47045  -0.52627
H     0.30534  -3.33294   0.62842
H     0.61985  -5.09703  -1.30969
H    -0.04217  -5.72808   0.22367
H    -1.14211  -5.29146  -1.11268
