23
Generated by autodE on: 2022-06-21. E = -351.521384 Ha
C    -2.89884  -0.36141   2.40137
C    -2.17289   0.16711   1.39168
C    -2.65853   1.36960   0.62347
C    -0.88883  -0.42766   1.02626
C    -0.06878   0.00797   0.03707
C     1.19754  -0.61809  -0.28400
C     2.07240  -0.24179  -1.25083
C     1.86506   0.92363  -2.17606
C     3.35392  -0.99659  -1.46463
H    -3.86231   0.06411   2.69563
H    -2.54340  -1.23458   2.95718
H    -2.76350   1.13976  -0.44992
H    -1.94172   2.20431   0.69722
H    -3.63169   1.71595   0.99904
H    -0.58014  -1.29985   1.61512
H    -0.37022   0.87652  -0.55472
H     1.46434  -1.48802   0.32835
H     2.69968   1.64044  -2.08011
H     0.92711   1.46598  -2.00047
H     1.87420   0.58346  -3.22673
H     3.46151  -1.83998  -0.76690
H     3.41079  -1.38713  -2.49666
H     4.22609  -0.32914  -1.34338
