23
Generated by autodE on: 2022-06-21. E = -609.135902 Ha
C     4.61278   0.92572   0.21468
N     3.82396  -0.25756  -0.06144
C     2.45271  -0.17674  -0.11156
O     1.84564   0.82488   0.34242
N     1.88372  -1.27750  -0.67782
O     0.47566  -1.03584  -0.77439
C    -0.14047  -0.64844   0.27593
C    -1.49292  -0.18025   0.18633
C    -2.18775   0.07460   1.38808
C    -3.50549   0.52073   1.34479
C    -4.13286   0.71494   0.10875
C    -3.44615   0.46694  -1.08989
C    -2.12981   0.02519  -1.05871
H     4.23056   1.43122   1.11215
H     4.60660   1.65888  -0.61327
H     5.65398   0.62941   0.40227
H     4.23872  -0.94808  -0.67955
H     0.33192  -0.78776   1.25221
H    -1.68260  -0.08330   2.34358
H    -4.04691   0.71883   2.27175
H    -5.16642   1.06705   0.07573
H    -3.94569   0.62746  -2.04730
H    -1.58025  -0.16101  -1.98268
