23
Generated by autodE on: 2022-07-27. E = -609.135911 Ha
C    -1.65573  -2.44486  -3.67906
N    -1.92442  -2.43644  -2.25540
C    -1.29291  -1.52732  -1.44001
O    -0.28653  -0.88975  -1.83733
N    -1.87577  -1.43447  -0.21205
O    -1.21147  -0.39071   0.50760
C     0.06429  -0.41870   0.57127
C     0.78413   0.70786   1.08960
C     0.14036   1.92899   1.39338
C     0.88195   2.98461   1.90773
C     2.26247   2.83866   2.11446
C     2.90730   1.63466   1.80831
C     2.17330   0.56867   1.29616
H    -0.57235  -2.48146  -3.85824
H    -2.10951  -3.34013  -4.12575
H    -2.05414  -1.55718  -4.20473
H    -2.86471  -2.69133  -1.96903
H     0.58953  -1.34840   0.33641
H    -0.93138   2.03178   1.21672
H     0.39203   3.93073   2.14602
H     2.83980   3.67526   2.51469
H     3.98187   1.53142   1.97034
H     2.65975  -0.37835   1.05214
