46
Generated by autodE on: 2022-06-21. E = -960.657919 Ha. Imaginary frequency = -327.3 cm-1
C    -2.57584   0.41484   0.93706
C    -2.58914  -0.07314  -0.32353
C    -3.81497  -0.73789  -0.89612
C    -1.41475  -0.02465  -1.18845
C    -0.31960   0.83151  -0.96861
C     0.57833   1.18806  -2.07305
C     1.31463   2.31562  -2.18430
C     1.30037   3.44570  -1.19116
C     2.21137   2.53404  -3.37177
C     0.92525  -0.39151   0.21927
C     1.55289   0.48682   1.20202
C     0.98436   0.69734   2.47343
C     1.58219   1.58644   3.36428
C     2.74476   2.27809   2.99831
C     3.31603   2.06738   1.73921
C     2.72714   1.17307   0.84479
O     0.08837  -1.30013   0.69137
N    -0.46384  -2.04934  -0.32560
C    -1.45059  -2.84523   0.22365
O    -1.83242  -2.81671   1.40605
N    -1.98039  -3.72719  -0.68046
C    -1.72618  -3.70238  -2.10793
H    -3.45984   0.33352   1.57481
H    -1.69940   0.90332   1.36678
H    -4.65469  -0.70993  -0.18758
H    -4.12826  -0.23941  -1.82863
H    -3.61301  -1.78877  -1.15167
H    -1.50574  -0.50575  -2.16437
H    -0.45241   1.58017  -0.18714
H     0.65483   0.44289  -2.87386
H     2.32529   3.68297  -0.86139
H     0.69748   3.24087  -0.29765
H     0.90845   4.36171  -1.66896
H     2.16672   1.69799  -4.08527
H     3.26038   2.65979  -3.04876
H     1.94093   3.46341  -3.90410
H     1.50206  -0.69283  -0.65855
H     0.07743   0.15840   2.75187
H     1.13978   1.74519   4.35039
H     3.20650   2.97820   3.69837
H     4.22563   2.60054   1.45386
H     3.16801   1.00393  -0.13924
H    -2.84647  -4.15427  -0.36703
H    -2.14243  -4.61410  -2.55767
H    -0.64623  -3.68106  -2.30549
H    -2.18132  -2.83135  -2.61181
