45
Generated by autodE on: 2022-06-18. E = -885.466665 Ha
C     5.11302  -0.92063  -1.17412
C     4.18220  -0.56336  -0.26610
C     4.55904  -0.08993   1.11275
C     2.75962  -0.63602  -0.61653
C     1.73524  -0.31437   0.19384
C     0.29690  -0.45806  -0.19836
N    -0.53832   0.68427   0.22935
C    -0.64473   1.81120  -0.58647
C     0.35926   2.12347  -1.53101
C     0.26054   3.27464  -2.31560
C    -0.82767   4.14349  -2.19213
C    -1.82351   3.83856  -1.25687
C    -1.73914   2.69567  -0.46243
N    -1.73382   0.23636   0.85730
C    -1.87271  -1.16285   0.47735
C    -2.77509  -1.89099   1.45549
C    -3.46509  -3.12734   0.96461
O    -2.92245  -1.46440   2.59073
C    -0.40595  -1.71330   0.41831
C    -0.22918  -2.91402  -0.50613
C     0.11750  -2.05156   1.82036
H     6.18127  -0.88057  -0.94332
H     4.82628  -1.26375  -2.17294
H     5.64987  -0.07926   1.24689
H     4.17569   0.92684   1.30052
H     4.11936  -0.73913   1.88819
H     2.53378  -0.98059  -1.63278
H     1.91835   0.04899   1.20839
H     0.23541  -0.55662  -1.29616
H     1.22840   1.47830  -1.64370
H     1.05344   3.48964  -3.03702
H    -0.89744   5.04182  -2.80929
H    -2.68510   4.50171  -1.14040
H    -2.51936   2.46647   0.26103
H    -1.60071   0.26606   1.87067
H    -2.30423  -1.23663  -0.53423
H    -2.75582  -3.79590   0.45408
H    -3.95662  -3.64867   1.79616
H    -4.21791  -2.83330   0.21359
H    -0.65981  -3.82526  -0.06507
H     0.84290  -3.10390  -0.67415
H    -0.70400  -2.74094  -1.48432
H    -0.42938  -2.91055   2.23753
H     0.01517  -1.20945   2.52082
H     1.18087  -2.32728   1.77629
