22
Generated by autodE on: 2022-07-27. E = -533.906960 Ha
C    -2.05627  -3.16555   1.55400
C    -0.90806  -2.25844   1.90912
O    -0.29214  -2.36618   2.98168
C    -0.55463  -1.24561   0.93765
N     0.50536  -0.49421   1.25383
N     1.18059   0.44379   0.68603
C     0.73146   1.00771  -0.51278
C     1.74272   1.48845  -1.37173
C     1.42032   2.12939  -2.56533
C     0.08034   2.33441  -2.91578
C    -0.92943   1.89388  -2.05432
C    -0.61737   1.22913  -0.86719
H    -2.23096  -3.88716   2.36262
H    -2.96892  -2.57213   1.38092
H    -1.83964  -3.70297   0.61622
H    -1.07059  -1.12487  -0.00897
H     0.89320  -0.77918   2.16829
H     2.78407   1.34048  -1.07894
H     2.21930   2.47885  -3.22355
H    -0.17440   2.84194  -3.84876
H    -1.97808   2.06842  -2.30699
H    -1.42591   0.92257  -0.20459
