45
Generated by autodE on: 2022-06-18. E = -885.402556 Ha. Imaginary frequency = -396.6 cm-1
C     5.40763   0.28632  -0.40873
C     4.35297  -0.20340   0.28100
C     4.49892  -0.66748   1.70785
C     3.04077  -0.28886  -0.35292
C     1.91034  -0.76100   0.23250
C     0.62720  -0.82821  -0.42988
N    -0.20366   1.12608   0.43386
C    -0.72894   1.69913  -0.72432
C     0.19997   2.13577  -1.69811
C    -0.22786   2.76515  -2.86286
C    -1.59120   3.00668  -3.08462
C    -2.51403   2.61370  -2.11132
C    -2.09811   1.96515  -0.94575
N    -1.03203   0.51962   1.27380
C    -1.82307  -0.52784   0.90794
C    -2.36489  -1.30693   2.04189
C    -3.52012  -2.22262   1.76348
O    -1.86779  -1.20178   3.16264
C    -0.38668  -1.76774  -0.08649
C    -1.23642  -2.26108  -1.24120
C    -0.07017  -2.81268   0.96786
H     6.39998   0.36405   0.04404
H     5.29923   0.62254  -1.44458
H     5.53260  -0.54840   2.06190
H     3.83443  -0.09966   2.38012
H     4.21736  -1.72867   1.81078
H     2.98449   0.05989  -1.39087
H     1.95679  -1.11960   1.26432
H     0.59263  -0.42664  -1.44421
H     1.26308   1.96803  -1.51702
H     0.51117   3.08238  -3.60308
H    -1.92510   3.50587  -3.99678
H    -3.57893   2.81505  -2.25480
H    -2.83838   1.69430  -0.19305
H    -0.63620   0.39781   2.20967
H    -2.44758  -0.41764   0.02432
H    -3.39606  -2.74992   0.80689
H    -3.64668  -2.93763   2.58681
H    -4.43316  -1.60856   1.67296
H    -2.17351  -2.72384  -0.89824
H    -0.68642  -3.03121  -1.81111
H    -1.48556  -1.44360  -1.93447
H    -0.94479  -3.44477   1.17805
H     0.25763  -2.36582   1.91706
H     0.73885  -3.47661   0.61641
