18
Generated by autodE on: 2022-06-03. E = -493.588548 Ha
C    -1.61574   1.60901  -1.10247
N    -1.54719   0.42788  -0.56218
C    -2.78129  -0.38544  -0.50112
C    -0.39773  -0.17070  -0.01641
C    -0.51717  -1.45911   0.53703
N    -0.60031  -2.53044   1.00097
C     0.88070   0.49201  -0.01164
O     1.13004   1.60984  -0.45920
O     1.83912  -0.27568   0.56413
C     3.15305   0.28308   0.62403
H    -2.57965   1.94055  -1.48562
H    -0.72054   2.22313  -1.15462
H    -2.61836  -1.32687  -1.03998
H    -3.59783   0.17589  -0.96403
H    -3.01911  -0.60071   0.54789
H     3.15948   1.21315   1.21212
H     3.53907   0.49202  -0.38505
H     3.77982  -0.47202   1.11390
