32
Generated by autodE on: 2022-06-29. E = -744.226766 Ha
C     3.03746   0.27875   2.25004
N     2.24678   0.82467   1.16726
C     1.56630   0.00675   0.30964
O     1.42274  -1.20660   0.56764
C     1.02655   0.62571  -0.88719
C     1.35862   1.92180  -1.28444
N     1.64945   3.01646  -1.60010
N     0.18803  -0.14644  -1.73406
C     0.59070  -0.26239  -3.14404
C    -0.79806  -0.87317  -1.25307
C    -1.38770  -1.96572  -2.08382
C    -1.37908  -0.58574   0.07270
C    -1.70937  -1.63426   0.94719
C    -2.30233  -1.36415   2.18232
C    -2.59152  -0.04749   2.54835
C    -2.28202   1.00192   1.67337
C    -1.66999   0.73967   0.45011
H     2.44024  -0.43066   2.84041
H     3.93923  -0.25370   1.89654
H     3.35622   1.09738   2.90859
H     2.44573   1.77391   0.86987
H     1.10761   0.66071  -3.42972
H    -0.28295  -0.40123  -3.78972
H     1.28320  -1.10916  -3.26063
H    -0.61267  -2.56304  -2.58546
H    -2.01486  -2.62202  -1.47060
H    -2.03331  -1.52929  -2.86582
H    -1.47820  -2.66433   0.67116
H    -2.54002  -2.18783   2.85904
H    -3.06235   0.16374   3.51124
H    -2.52065   2.03206   1.94716
H    -1.43082   1.56206  -0.22485
