32
Generated by autodE on: 2022-07-27. E = -744.226204 Ha
C    -5.16054  -0.40695  -0.63959
N    -3.80082  -0.29785  -1.12365
C    -2.73928  -0.41169  -0.27394
O    -2.91203  -0.77928   0.90844
C    -1.42828  -0.09576  -0.81593
C    -1.25546   0.49350  -2.07041
N    -1.11466   0.98907  -3.12677
N    -0.26544  -0.32725  -0.02754
C    -0.08924  -1.70296   0.47562
C     0.63324   0.61756   0.17053
C     0.31526   2.03414  -0.15251
C     1.98460   0.29287   0.67028
C     2.76816  -0.69212   0.04080
C     4.06043  -0.95637   0.49393
C     4.58031  -0.25477   1.58641
C     3.80774   0.72679   2.21601
C     2.52344   1.01223   1.75294
H    -5.31903  -1.36462  -0.12101
H    -5.42494   0.40170   0.06499
H    -5.84676  -0.35862  -1.49477
H    -3.65231   0.09041  -2.04845
H     0.30262  -2.34375  -0.32488
H     0.58888  -1.71089   1.33477
H    -1.07502  -2.06202   0.78499
H    -0.75360   2.24196   0.00657
H     0.93859   2.70668   0.44990
H     0.53413   2.24803  -1.21395
H     2.37258  -1.23520  -0.81862
H     4.66501  -1.71323  -0.01060
H     5.59012  -0.46897   1.94375
H     4.20903   1.27695   3.06988
H     1.92511   1.78085   2.24588
