19
Generated by autodE on: 2022-06-29. E = -457.431995 Ha
N     2.42564   2.03472  -0.64845
C     1.51921   1.39919  -0.28681
C     0.40445   0.65256   0.16748
C     0.28450  -0.70371   0.20197
C     1.24802  -1.65611  -0.21191
N     2.02643  -2.45929  -0.53632
C    -1.15115  -1.01782   0.59802
C    -2.01279  -0.61913  -0.64524
C    -1.87609   0.92764  -0.68553
C    -0.95224   1.23337   0.53932
C    -1.43234   0.16691   1.54527
H    -1.31589  -2.03375   0.97235
H    -3.05384  -0.92839  -0.47514
H    -1.65621  -1.11035  -1.56071
H    -1.44334   1.30059  -1.62372
H    -2.84600   1.42301  -0.53644
H    -0.93490   2.28047   0.85958
H    -2.49836   0.26762   1.79455
H    -0.83090   0.13798   2.46494
