51
Generated by autodE on: 2022-06-29. E = -1201.636501 Ha. Imaginary frequency = -261.1 cm-1
C    -4.90833  -0.67946  -1.23663
N    -3.56038  -0.59054  -1.76446
C    -2.50590  -1.01972  -1.03727
O    -2.65326  -1.59408   0.04403
C    -1.14770  -0.67676  -1.60065
C    -1.16199  -0.46269  -3.01686
N    -1.27003  -0.31389  -4.16783
N    -0.00262  -1.25566  -1.03454
C    -0.11824  -2.55741  -0.33775
C     1.20233  -0.59786  -1.11517
C     1.58681   0.01231  -2.44244
C     2.32863  -1.07102  -0.26674
C     3.61695  -1.23091  -0.81514
C     4.69030  -1.63495  -0.01987
C     4.50627  -1.87542   1.34368
C     3.23456  -1.71825   1.90438
C     2.15923  -1.32690   1.10998
C     0.46686   1.39016  -0.20835
C     1.45551   2.25027  -0.76043
N     2.29473   2.95740  -1.15498
C     0.34774   1.39697   1.32673
C    -0.14835   2.81999   1.71365
C    -1.60217   2.84143   1.16112
C    -1.77515   1.41438   0.56000
C    -0.93298   0.57794   1.53852
C    -0.89204   1.38452  -0.69663
C    -1.29011   2.15142  -1.82897
N    -1.63938   2.75940  -2.75907
H    -5.61299  -0.36597  -2.01637
H    -5.04359  -0.03245  -0.35350
H    -5.14125  -1.71251  -0.94062
H    -3.40559  -0.01953  -2.58913
H    -0.88703  -3.14762  -0.84513
H     0.84066  -3.07687  -0.43410
H    -0.38410  -2.46677   0.71952
H     0.83738   0.68987  -2.85659
H     2.52218   0.57025  -2.35929
H     1.73132  -0.80589  -3.16779
H     3.78868  -1.05716  -1.87650
H     5.67638  -1.76110  -0.47227
H     5.34849  -2.18389   1.96722
H     3.07708  -1.89987   2.96975
H     1.18214  -1.21119   1.57140
H     1.25475   1.07453   1.84930
H    -0.13359   2.92850   2.80800
H     0.48714   3.61011   1.28955
H    -2.33871   2.98394   1.96493
H    -1.76951   3.62739   0.41076
H    -2.81685   1.12077   0.39865
H    -0.85250  -0.47484   1.26126
H    -1.30937   0.64935   2.56883
