51
Generated by autodE on: 2022-06-03. E = -1258.966933 Ha
C    -0.47281  -7.94057  -1.14050
N    -1.09225  -7.89109   0.16880
C    -1.60106  -6.77860   0.69945
O    -1.53871  -5.65308   0.19756
C    -2.41256  -6.93648   2.02379
C    -2.02474  -8.15466   2.88960
O    -1.91318  -9.27897   2.37696
N    -1.86084  -7.89942   4.18796
C    -1.53642  -8.91211   5.17258
O    -2.23364  -5.75060   2.77957
C    -3.39255  -4.92630   2.72170
C    -3.73868  -4.58783   4.12036
N    -3.95350  -4.32546   5.22924
C    -2.97838  -3.59892   1.98539
C    -1.61633  -3.07539   2.32361
O    -3.73082  -3.06743   1.20284
C    -4.45275  -5.78139   2.02561
C    -3.89109  -6.94559   1.65124
C    -4.46983  -8.11359   0.90583
C    -4.58168  -7.94480  -0.62072
C    -5.62763  -6.94698  -1.12410
C    -5.33294  -5.46215  -0.83378
C    -6.10685  -4.80407   0.30638
C    -5.89234  -5.33678   1.76741
C    -6.39617  -4.24583   2.74639
C    -6.80109  -6.47591   1.99831
N    -7.58361  -7.30663   2.21156
H    -1.03829  -8.60831  -1.80882
H    -0.45898  -6.93244  -1.57066
H     0.56074  -8.31297  -1.07038
H    -1.25019  -8.75302   0.69675
H    -1.96151  -6.93298   4.48403
H    -2.35483  -9.02480   5.90048
H    -1.37867  -9.86983   4.66351
H    -0.62041  -8.63864   5.71711
H    -1.53585  -2.03137   1.99487
H    -1.40762  -3.16463   3.40000
H    -0.87231  -3.68656   1.79065
H    -5.46140  -8.35389   1.31120
H    -3.83328  -8.98390   1.11005
H    -3.59658  -7.67503  -1.03576
H    -4.82229  -8.93949  -1.03017
H    -6.62245  -7.22102  -0.73192
H    -5.69456  -7.08058  -2.21585
H    -4.25104  -5.32043  -0.67947
H    -5.58107  -4.87245  -1.73105
H    -5.83791  -3.74188   0.33184
H    -7.18913  -4.85675   0.10621
H    -6.39453  -4.59819   3.78541
H    -5.77689  -3.34416   2.66105
H    -7.42620  -3.97527   2.47461
