24
Generated by autodE on: 2022-06-03. E = -443.760238 Ha
C     1.85744  -0.32857  -1.69827
C     0.68589   0.39435  -0.99838
C     0.48686   1.70130  -1.65013
N     0.31984   2.71791  -2.18470
C     0.90919   0.56119   0.45095
C     0.65783   0.26470   1.60207
C    -0.12382  -0.30381   2.69799
C    -1.52089  -0.60667   2.10258
C    -1.59955  -1.70631   1.02540
C    -0.68367  -1.69324  -0.22226
C    -0.65746  -0.42433  -1.10481
H     1.99500  -1.32181  -1.24955
H     1.63940  -0.44705  -2.76953
H     2.78996   0.24146  -1.58220
H     0.35416  -1.22169   3.08101
H    -0.21261   0.38960   3.54959
H    -1.92284   0.33882   1.70287
H    -2.19131  -0.90324   2.92656
H    -2.64766  -1.72335   0.67895
H    -1.43594  -2.68086   1.51794
H     0.34198  -1.95587   0.07680
H    -1.01977  -2.53358  -0.85039
H    -0.79114  -0.68399  -2.16619
H    -1.48454   0.24931  -0.83302
