27
Generated by autodE on: 2022-06-03. E = -815.067439 Ha
C    -1.79829  -3.62881   0.83801
N    -1.01580  -2.42988   0.60748
C    -1.60648  -1.26364   0.31061
O    -2.83874  -1.13748   0.21528
C    -0.71138  -0.09548   0.06128
O     0.54863  -0.38070   0.01658
C     1.69097   0.21999  -0.27335
C     1.79945   1.47855  -0.90785
N     2.01199   2.45415  -1.51133
C     2.89884  -0.58718  -0.07354
C     2.73241  -1.98028   0.46971
O     3.99478  -0.10359  -0.34804
C    -1.16545   1.32167   0.08824
O    -0.35057   2.20550   0.38510
N    -2.46224   1.53844  -0.17269
C    -3.04495   2.85697  -0.03132
H    -1.11473  -4.45760   1.05524
H    -2.40115  -3.88319  -0.04767
H    -2.48423  -3.49730   1.68956
H    -0.00519  -2.47729   0.67745
H     2.21508  -1.96116   1.44170
H     3.72241  -2.43860   0.58409
H     2.12225  -2.58607  -0.21976
H    -3.05151   0.70407  -0.23490
H    -4.05070   2.85076  -0.46836
H    -2.42941   3.60295  -0.55422
H    -3.11894   3.15948   1.02714
