51
Generated by autodE on: 2022-06-03. E = -1258.823939 Ha. Imaginary frequency = -151.5 cm-1
C    -0.90399  -7.05733  -1.21790
N    -1.10385  -7.25367   0.20250
C    -1.71049  -6.32702   0.95433
O    -2.09267  -5.23165   0.50753
C    -1.94767  -6.68832   2.37741
C    -1.62609  -8.00603   2.99124
O    -1.17354  -8.94074   2.30278
N    -1.87014  -8.13255   4.30322
C    -1.64535  -9.38823   4.99163
O    -2.40004  -5.81790   3.23828
C    -2.99611  -4.64559   3.12265
C    -3.68901  -4.27222   4.30408
N    -4.27301  -3.94946   5.26068
C    -2.52263  -3.53507   2.21914
C    -1.03314  -3.31658   2.16302
O    -3.31557  -2.72132   1.77661
C    -4.98443  -6.12656   1.92264
C    -4.43301  -7.20049   1.69090
C    -4.32026  -8.50839   1.03140
C    -4.62809  -8.36490  -0.47998
C    -5.78174  -7.40584  -0.83225
C    -5.38387  -5.90459  -0.86610
C    -6.10527  -4.91675   0.06192
C    -6.15571  -5.26319   1.59567
C    -6.33854  -3.97928   2.42325
C    -7.33493  -6.11801   1.85634
N    -8.27425  -6.76556   2.07378
H    -1.85968  -7.06633  -1.76762
H    -0.41369  -6.09105  -1.40874
H    -0.26865  -7.86509  -1.60063
H    -0.91816  -8.15306   0.65740
H    -2.27444  -7.35024   4.80744
H    -2.32410 -10.17479   4.62390
H    -0.61171  -9.73527   4.84326
H    -1.82181  -9.23890   6.06318
H    -0.75253  -2.95815   1.16345
H    -0.80832  -2.52219   2.89577
H    -0.44418  -4.20343   2.42643
H    -5.07448  -9.16440   1.50040
H    -3.34745  -8.99736   1.17837
H    -3.71685  -8.03124  -1.00098
H    -4.85202  -9.37468  -0.85980
H    -6.62584  -7.58120  -0.14547
H    -6.15663  -7.69119  -1.82746
H    -4.30430  -5.81638  -0.67937
H    -5.53229  -5.51822  -1.88759
H    -5.59054  -3.94717  -0.01520
H    -7.14466  -4.75099  -0.26317
H    -6.45239  -4.20783   3.49098
H    -5.46281  -3.33506   2.28086
H    -7.23678  -3.44771   2.07658
