45
Generated by autodE on: 2022-06-01. E = -1589.521604 Ha
C    -2.60263  -2.91669  -0.91868
C    -1.59596  -2.19318  -0.07860
O    -0.82699  -2.76775   0.66908
C    -1.56216  -0.64201  -0.07128
Cl   -2.06377   0.00472  -1.73209
C    -2.66043  -0.29086   0.95437
C    -3.26677   1.10891   0.89948
C    -2.24670   2.23130   1.05055
C    -1.35187   2.01279   2.27776
C     0.14677   1.79542   1.99464
C     0.72555   3.15530   1.53036
C     0.79809   1.35975   3.32674
C     0.47828   0.75385   0.93485
C    -0.14601  -0.16613   0.15966
C     0.98824  -0.72902  -0.77797
C     0.90513  -2.07465  -1.49179
C     1.82004  -3.14955  -1.00244
O     0.14907  -2.18998  -2.43412
O     2.13249  -0.65148   0.07914
C     1.95341   0.69028   0.41062
C     3.10910   1.17500   1.16678
N     4.07456   1.50589   1.71214
O     1.95657   1.36069  -0.89805
C     1.32161   0.46986  -1.71448
O     1.11860   0.64749  -2.87769
H    -2.77788  -3.91150  -0.48871
H    -3.54404  -2.36374  -1.02782
H    -2.17134  -3.03734  -1.92550
H    -3.47724  -1.01482   0.81751
H    -2.22863  -0.50888   1.94170
H    -3.83260   1.22612  -0.03644
H    -4.00088   1.16465   1.72092
H    -1.63826   2.29703   0.13447
H    -2.77786   3.19254   1.12430
H    -1.40318   2.88342   2.94798
H    -1.72496   1.16934   2.87606
H     0.51290   3.90860   2.30315
H     1.81332   3.14712   1.38316
H     0.26042   3.48378   0.58967
H     0.57434   2.11284   4.09783
H     0.38588   0.39424   3.65590
H     1.88966   1.26453   3.26780
H     2.86282  -2.84594  -1.19242
H     1.60035  -4.08651  -1.52897
H     1.71233  -3.27463   0.08466
