31
Generated by autodE on: 2022-06-01. E = -1003.164811 Ha
C     2.64344   1.32427   0.88067
C     2.18483   0.64015  -0.37311
O     2.58615   0.93960  -1.47890
C     1.13450  -0.49155  -0.21684
Cl    2.19343  -1.92658   0.34242
C     0.10926  -0.17687   0.75428
C    -0.99334   0.21169   1.08446
C    -2.39641   0.62668   1.01990
C    -3.31196  -0.53618   1.44632
C    -2.68036   1.86215   1.88795
C    -2.60684   0.97812  -0.49035
C    -2.07269  -0.02127  -1.53911
C    -0.60687   0.13515  -2.03582
C     0.45236  -0.87437  -1.53936
H     2.75766   0.61240   1.70973
H     1.86878   2.05197   1.17539
H     3.58275   1.85993   0.69208
H    -3.12231  -0.81892   2.49293
H    -4.36510  -0.22734   1.35642
H    -3.15458  -1.42489   0.81771
H    -2.54971   1.63039   2.95615
H    -3.71802   2.19645   1.73260
H    -2.00680   2.69263   1.62741
H    -3.69388   1.10211  -0.62882
H    -2.15332   1.96570  -0.67701
H    -2.71888   0.09488  -2.42315
H    -2.23941  -1.05606  -1.19566
H    -0.25507   1.16425  -1.85326
H    -0.62238   0.02509  -3.13113
H     1.24539  -0.98311  -2.29246
H    -0.01154  -1.86216  -1.40202
