14
Generated by autodE on: 2022-06-01. E = -586.283474 Ha
C    -3.13629   0.01883  -0.62522
C    -1.86719   0.82558  -0.56577
O    -1.81303   2.02185  -0.84068
C    -0.67698   0.10524  -0.15487
O     0.52247   0.79760  -0.07844
C     1.44388  -0.02482   0.29575
C     2.78942   0.39938   0.46005
N     3.89293   0.73246   0.59750
O     1.04101  -1.22651   0.49474
C    -0.46595  -1.23843   0.19777
O    -1.07033  -2.26279   0.31597
H    -3.01935  -0.83688  -1.30900
H    -3.37362  -0.39320   0.36884
H    -3.95686   0.66213  -0.96739
