12
Generated by autodE on: 2022-06-17. E = -381.636093 Ha
O    -1.02457   2.34226   0.75833
C    -0.55323   1.26464   0.40995
C     0.89798   1.11094   0.14560
C     1.41435  -0.06957  -0.23814
C     0.55322  -1.26463  -0.41002
O     1.02457  -2.34227  -0.75829
C    -0.89798  -1.11095  -0.14559
C    -1.41435   0.06957   0.23815
H     1.51227   2.00454   0.27902
H     2.47958  -0.20599  -0.43915
H    -1.51226  -2.00455  -0.27897
H    -2.47957   0.20597   0.43919
