33
Generated by autodE on: 2022-06-17. E = -914.567135 Ha. Imaginary frequency = -411.5 cm-1
C     3.00103   1.19733  -1.73370
O     2.50185   0.51091  -0.57631
C     1.46739  -0.31371  -0.76194
O     0.99821  -0.56618  -1.85691
C     0.97527  -0.83233   0.53800
C     1.85473  -0.66979   1.64723
N     2.55461  -0.49533   2.56159
C    -0.62542   0.80999   1.02582
C    -0.07838   1.94046   0.27102
O     0.84375   2.64053   0.69787
C    -0.68319   2.22010  -1.05559
C    -1.80547   1.60041  -1.46239
C    -2.50040   0.60714  -0.60454
O    -3.62459   0.20717  -0.90460
C    -1.77778   0.11416   0.58929
C    -1.08986  -1.68020  -0.18661
C    -2.21526  -2.66015  -0.13848
N     0.02125  -1.83307   0.59861
C    -0.10071  -2.58222   1.85428
H     3.41580   0.47993  -2.45586
H     2.19702   1.77707  -2.20861
H     3.78765   1.86594  -1.36688
H    -0.32434   0.76000   2.07305
H    -0.18825   2.98278  -1.66195
H    -2.28209   1.82718  -2.41933
H    -2.41042  -0.35928   1.34486
H    -0.85894  -1.27423  -1.16919
H    -1.90230  -3.61728  -0.59020
H    -2.57785  -2.85253   0.87966
H    -3.04717  -2.26476  -0.73585
H    -0.65328  -1.99021   2.60230
H     0.89699  -2.81637   2.23923
H    -0.62826  -3.52230   1.66789
