37
Generated by autodE on: 2022-06-18. E = -1046.177706 Ha
C     3.64952   1.44356   0.50551
O     2.92679   0.22186   0.71650
C     1.72802   0.09244   0.10006
C     1.48269  -0.95508  -0.75318
O     2.35663  -1.85008  -1.19998
C     3.77462  -1.63287  -1.16811
C     0.09981  -1.27313  -1.22098
O    -0.09151  -2.28309  -1.87434
C    -1.06312  -0.35172  -0.86729
C    -1.94680  -0.21248  -2.11347
C    -1.90840  -0.93589   0.35206
C    -3.01056  -1.92512  -0.02119
C    -1.01956  -1.58935   1.33451
N    -0.33184  -2.11196   2.10833
N    -2.46902   0.25747   1.03488
C    -1.79068   1.27654   0.66980
C    -2.08567   2.58867   1.18085
N    -2.31223   3.66033   1.56485
C    -0.64146   1.03535  -0.30074
C    -0.45944   2.16194  -1.33147
C     0.64922   0.99386   0.52730
O     0.78979   1.74592   1.48250
H     4.57035   1.36040   1.09623
H     3.07288   2.31544   0.84350
H     3.90418   1.55370  -0.56083
H     4.19743  -2.40237  -1.82619
H     4.16939  -1.75018  -0.15183
H     4.02220  -0.63496  -1.55797
H    -2.82418   0.41574  -1.90969
H    -1.37099   0.24493  -2.92855
H    -2.28414  -1.19688  -2.45443
H    -2.58164  -2.76923  -0.57784
H    -3.48976  -2.30323   0.89217
H    -3.76958  -1.42862  -0.63735
H     0.30154   1.87607  -2.07037
H    -0.12316   3.07658  -0.82291
H    -1.40227   2.37974  -1.84922
