26
Generated by autodE on: 2022-06-18. E = -689.460858 Ha
C     2.28459   2.44420   0.58113
O     0.87365   2.20478   0.55095
C     0.35220   1.00554   0.29381
C     0.98541  -0.17988   0.06700
O     2.34280  -0.32177   0.11739
C     2.99778  -0.50501  -1.14213
C     0.20258  -1.41105  -0.17352
O     0.78945  -2.48047  -0.32992
C    -1.28958  -1.34700  -0.21247
C    -2.03143  -2.61585  -0.49062
C    -1.93076  -0.17451   0.01778
C    -3.42441  -0.06707   0.00689
C    -1.15274   1.06116   0.29029
O    -1.70405   2.13225   0.50295
H     2.39057   3.51381   0.80244
H     2.76908   1.85090   1.36721
H     2.74285   2.22405  -0.39351
H     4.07223  -0.58049  -0.92840
H     2.65902  -1.42555  -1.64009
H     2.81659   0.35859  -1.80345
H    -2.69130  -2.87344   0.35471
H    -1.34039  -3.44883  -0.66465
H    -2.68307  -2.50092  -1.37235
H    -3.75112   0.95546   0.22951
H    -3.82838  -0.36113  -0.97604
H    -3.87002  -0.75128   0.74746
