11
Generated by autodE on: 2022-06-18. E = -356.630460 Ha
C    -2.31508  -0.75056   0.15875
C    -1.13976   0.14130  -0.13282
C    -1.33596   1.54458  -0.31601
N    -1.54035   2.68189  -0.45933
N     0.05824  -0.31131  -0.22276
C     1.15216  -0.79911  -0.43612
C     2.24893  -1.07337   0.37679
N     3.23794  -1.35789   0.93179
H    -3.05272  -0.67621  -0.65588
H    -2.80434  -0.43708   1.09437
H    -1.98260  -1.79204   0.25499
