48
Generated by autodE on: 2022-10-07. E = -1012.527051 Ha
C    -2.61276   2.33041  -1.57803
N    -1.24933   1.80015  -1.61480
C    -0.55755   1.73116  -0.35291
N    -0.32821   3.03347   0.20055
N     0.83759   1.18067  -0.70559
C     1.32965   0.37274   0.46426
C     1.86039   1.30952   1.50736
N     2.19085   1.94593   2.41868
C     2.43316  -0.58664   0.01861
C     3.78041  -0.21853   0.11022
C     4.77228  -1.07795  -0.36861
C     4.42161  -2.30558  -0.93625
C     3.07503  -2.67302  -1.02613
C     2.08022  -1.81732  -0.55156
N     0.11310  -0.25827   0.86786
C     0.14999  -1.12008   2.03343
C    -1.08945   0.59135   0.65824
C    -1.57853   1.23038   1.96432
C    -2.17059  -0.31463   0.04240
C    -3.49480  -0.31017   0.50486
C    -4.46093  -1.14560  -0.06614
C    -4.12011  -2.00544  -1.11128
C    -2.80102  -2.02566  -1.57627
C    -1.83973  -1.19365  -1.00116
H    -3.28336   1.64790  -1.04543
H    -2.70136   3.32990  -1.11236
H    -2.97138   2.41704  -2.61270
H    -0.69592   2.41209  -2.21865
H    -1.13720   3.63148   0.04383
H    -0.13128   3.04376   1.19786
H     1.47086   1.95393  -0.95533
H     0.75202   0.54709  -1.51414
H     4.06306   0.73889   0.55222
H     5.82165  -0.78524  -0.29476
H     5.19799  -2.97825  -1.30762
H     2.79574  -3.63270  -1.46613
H     1.03074  -2.10287  -0.61761
H     0.96190  -1.85223   1.92818
H     0.30151  -0.56864   2.97919
H    -0.79758  -1.67256   2.09523
H    -2.00841   0.46735   2.62425
H    -0.75864   1.70810   2.51561
H    -2.34961   1.98656   1.76635
H    -3.79783   0.35625   1.31095
H    -5.48507  -1.11978   0.31346
H    -4.87365  -2.65796  -1.55859
H    -2.51630  -2.69507  -2.39149
H    -0.81808  -1.23408  -1.37581
