35
Generated by autodE on: 2022-10-13. E = -767.258927 Ha
C    -0.30295   1.89173  -0.02331
C    -0.91861   0.56866   0.25107
C    -2.19197   0.22005  -0.40140
C    -3.25977   1.13861  -0.42682
C    -4.45415   0.81679  -1.07054
C    -4.59621  -0.41460  -1.71954
C    -3.53440  -1.32522  -1.71952
C    -2.34292  -1.01478  -1.06499
N    -0.28608  -0.30865   1.02595
C    -0.99248  -1.44496   1.64318
C     1.09159  -0.20012   1.30515
C     1.49760  -0.43381   2.62756
N     1.86659  -0.62463   3.72678
C     2.08858   0.02489   0.26627
C     3.41703   0.37378   0.61603
C     4.40525   0.52886  -0.35337
C     4.11152   0.35183  -1.71155
C     2.80517   0.01018  -2.07600
C     1.80894  -0.14765  -1.11150
H     0.33128   1.85975  -0.92836
H    -1.08647   2.63892  -0.20576
H     0.34317   2.20207   0.81172
H    -3.16092   2.09955   0.08102
H    -5.27950   1.53231  -1.06610
H    -5.53009  -0.66092  -2.22993
H    -3.63181  -2.28165  -2.23808
H    -1.51313  -1.72296  -1.08592
H    -0.66292  -1.51552   2.68801
H    -2.07378  -1.28062   1.62321
H    -0.73497  -2.38002   1.12882
H     3.67045   0.52267   1.66810
H     5.41848   0.79855  -0.04370
H     4.88617   0.48033  -2.47067
H     2.55235  -0.13973  -3.12896
H     0.80688  -0.43535  -1.43459
