13
Generated by autodE on: 2022-10-07. E = -245.298501 Ha
C    -1.64943  -1.03093  -0.36673
N    -0.85285   0.18412  -0.37238
C     0.39891   0.25933   0.08571
N     1.05771   1.42116   0.03355
N     0.99478  -0.81805   0.60073
H    -2.63415  -0.79591  -0.78602
H    -1.18893  -1.81996  -0.98274
H    -1.79091  -1.41393   0.65630
H    -1.25432   1.02641  -0.77255
H     2.01754   1.48239   0.35453
H     0.62327   2.24114  -0.37549
H     1.94197  -0.75625   0.95769
H     0.51608  -1.70896   0.65739
