48
Generated by autodE on: 2022-10-07. E = -1012.488682 Ha. Imaginary frequency = -472.2 cm-1
C    -2.95977   2.15960  -1.56161
N    -1.65131   1.58309  -1.80414
C    -0.61229   1.78907  -0.87360
N    -0.56485   3.07821  -0.30241
N     0.64491   1.38681  -1.34565
C     1.45178   0.10018   0.66038
C     1.78423   1.43187   1.07554
N     2.19154   2.46272   1.42906
C     2.63789  -0.73014   0.36276
C     3.74953  -0.70969   1.22389
C     4.87612  -1.47414   0.92284
C     4.91292  -2.23781  -0.24818
C     3.81907  -2.23769  -1.12158
C     2.68274  -1.49054  -0.82076
N     0.21424  -0.37661   0.66778
C     0.05508  -1.85051   0.68011
C    -0.97138   0.47012   0.61391
C    -1.13482   1.30291   1.87659
C    -2.19979  -0.31381   0.24455
C    -3.35025  -0.31935   1.05199
C    -4.50427  -1.00616   0.66199
C    -4.53355  -1.70444  -0.54631
C    -3.39461  -1.71429  -1.35998
C    -2.24848  -1.02358  -0.97200
H    -3.31497   1.89499  -0.55688
H    -2.98448   3.26236  -1.65560
H    -3.67746   1.74257  -2.28319
H    -1.31836   1.73705  -2.75246
H    -1.47272   3.40104   0.02245
H     0.11244   3.18060   0.44730
H     1.25692   2.14674  -1.63654
H     0.62762   0.60359  -1.99494
H     3.72340  -0.10758   2.13411
H     5.73041  -1.46916   1.60276
H     5.80039  -2.82825  -0.48653
H     3.85430  -2.81810  -2.04573
H     1.83882  -1.47451  -1.51175
H     0.92862  -2.29027   1.17010
H    -0.84228  -2.08146   1.26283
H    -0.04932  -2.26900  -0.32501
H    -1.33350   0.64483   2.73733
H    -0.25328   1.90052   2.12344
H    -1.98072   1.99224   1.76894
H    -3.36106   0.21582   2.00042
H    -5.38276  -0.99349   1.31144
H    -5.43525  -2.23959  -0.85349
H    -3.40248  -2.25761  -2.30786
H    -1.37812  -1.03098  -1.62578
