39
Generated by autodE on: 2022-06-20. E = -968.662969 Ha
C     3.64442  -1.88822  -1.30963
N     2.51123  -1.24050  -0.67929
C     2.66624  -0.17606   0.10966
O     3.75284   0.34265   0.38453
C     1.34899   0.38197   0.71128
C     1.66202   1.69803   1.32848
N     1.80122   2.75033   1.79818
C     0.76925  -0.59610   1.77089
C    -0.73797  -0.38580   1.67409
C    -0.97486  -0.08392   0.16340
C    -1.16867  -1.42393  -0.60061
O    -0.17225  -2.06492  -0.97728
N    -2.41027  -1.87344  -0.77266
C    -2.68422  -3.13954  -1.42318
C    -2.18266   0.87940   0.08345
O    -3.35461   0.47053   0.11343
N    -1.88150   2.18117   0.07743
C    -2.90442   3.20691   0.13860
N     0.25995   0.55965  -0.23454
C     0.51235   0.94049  -1.60962
H     3.27946  -2.72103  -1.92353
H     4.34991  -2.28271  -0.56063
H     4.19616  -1.18670  -1.95604
H     1.55391  -1.58537  -0.84406
H     1.17209  -0.40628   2.77364
H     1.03440  -1.61805   1.47612
H    -1.04211   0.49045   2.26368
H    -1.31803  -1.25162   2.01635
H    -3.16105  -1.25321  -0.45657
H    -3.76889  -3.30003  -1.44535
H    -2.21231  -3.97421  -0.88127
H    -2.30199  -3.14992  -2.45636
H    -0.89814   2.43561   0.09845
H    -2.43085   4.18773   0.01081
H    -3.64791   3.06240  -0.65957
H    -3.43451   3.18991   1.10492
H     0.77260   0.08986  -2.26252
H     1.33727   1.66854  -1.64152
H    -0.37668   1.43144  -2.03100
