33
Generated by autodE on: 2022-07-27. E = -889.950609 Ha
C     4.92308   0.96283   0.24035
N     3.60928   0.53953   0.67829
C     2.64616   0.20394  -0.21263
O     2.86207   0.20827  -1.43585
C     1.32563  -0.12893   0.35244
C     1.01246   0.23140   1.67230
N     0.81593   0.51983   2.79032
N     0.34113  -0.67705  -0.46670
C     0.79280  -1.71646  -1.43358
C    -0.94724  -0.40345  -0.33322
C    -2.00719  -1.19021  -1.05795
O    -1.84456  -1.61265  -2.20809
N    -3.14236  -1.36636  -0.36358
C    -4.28822  -2.03057  -0.95115
C    -1.42032   0.74375   0.52802
O    -2.24948   0.55354   1.42698
N    -0.95546   1.95785   0.20444
C    -1.24134   3.11415   1.03598
H     5.48347   0.13968  -0.23392
H     5.48977   1.31567   1.11081
H     4.84990   1.78312  -0.49040
H     3.42753   0.46016   1.67284
H     0.17963  -2.61113  -1.28411
H     1.83770  -1.94621  -1.22693
H     0.66588  -1.35472  -2.45712
H    -3.20262  -0.93865   0.56054
H    -5.10232  -2.04627  -0.21686
H    -4.04358  -3.06618  -1.23468
H    -4.63211  -1.50523  -1.85668
H    -0.23010   2.03530  -0.50343
H    -0.77712   3.99698   0.58132
H    -2.32592   3.27874   1.11323
H    -0.83748   2.97690   2.05173
