33
Generated by autodE on: 2022-06-20. E = -889.954886 Ha
C     3.93286  -0.65387   1.58048
N     3.16155  -0.52303   0.36004
C     1.91816  -0.00867   0.37202
O     1.36692   0.36672   1.41343
C     1.27418   0.16014  -0.96380
C     2.08278   0.24090  -2.11602
N     2.79688   0.29157  -3.04067
N    -0.04555   0.46361  -1.05884
C    -0.47944   1.24508  -2.23941
C    -0.95335   0.02934  -0.15720
C    -2.14378   0.86960   0.14219
O    -3.26463   0.38981   0.39181
N    -1.92199   2.19822   0.20028
C    -2.99707   3.13131   0.47596
C    -0.77756  -1.31294   0.46492
O     0.18238  -2.05183   0.19648
N    -1.76407  -1.70446   1.29857
C    -1.78650  -3.04776   1.83633
H     3.38304  -1.24439   2.32978
H     4.15857   0.32978   2.02265
H     4.87650  -1.16200   1.34906
H     3.57277  -0.83116  -0.51525
H    -1.57036   1.29145  -2.27222
H    -0.12816   0.71863  -3.13686
H    -0.03980   2.24995  -2.21120
H    -0.97570   2.55469   0.11856
H    -3.81926   3.00459  -0.24483
H    -2.60620   4.15272   0.39588
H    -3.40725   2.98433   1.48834
H    -2.62058  -1.14953   1.28658
H    -2.55542  -3.10642   2.61708
H    -0.81038  -3.29902   2.27555
H    -2.01161  -3.80286   1.06310
