39
Generated by autodE on: 2022-06-20. E = -968.563429 Ha. Imaginary frequency = -362.9 cm-1
C     5.08414   0.48404   0.22517
N     3.68578   0.23909   0.52155
C     2.73131   0.40553  -0.41141
O     2.98339   0.73208  -1.57518
C     1.31929   0.21160   0.09091
C     1.04358   1.02973   1.22233
N     0.94421   1.69621   2.17568
C     0.99223  -1.69505   1.49183
C    -0.35505  -1.90346   1.25991
C    -0.93825  -0.37032  -0.26623
C    -2.00887  -1.07261  -1.07356
O    -1.91149  -1.33050  -2.27804
N    -3.11169  -1.38431  -0.36503
C    -4.25940  -2.00637  -0.99313
C    -1.54648   0.74687   0.57076
O    -2.22304   0.52871   1.58159
N    -1.40426   1.97918   0.05063
C    -1.82764   3.15402   0.78835
N     0.32481  -0.20647  -0.77065
C     0.76514  -1.14396  -1.83216
H     5.47981  -0.25269  -0.49267
H     5.65997   0.41466   1.15582
H     5.22147   1.48691  -0.20677
H     3.42664  -0.09462   1.44444
H     1.33322  -1.18204   2.39259
H     1.74661  -2.26641   0.94580
H    -1.09692  -1.56213   1.98304
H    -0.66217  -2.71241   0.59340
H    -3.15562  -1.10281   0.61128
H    -4.67173  -1.37312  -1.79550
H    -5.03432  -2.16456  -0.23337
H    -3.99249  -2.97903  -1.43548
H    -0.79341   2.10329  -0.75072
H    -1.64523   4.04332   0.17336
H    -2.89928   3.09656   1.02784
H    -1.26533   3.24722   1.73221
H     0.36632  -2.14176  -1.61281
H     1.85232  -1.19072  -1.85669
H     0.38794  -0.81554  -2.80358
