29
Generated by autodE on: 2022-06-26. E = -704.914183 Ha
C     4.66584  -0.78531   1.64491
N     3.80542  -0.31077   0.58092
C     2.45994  -0.34867   0.68933
O     1.89350  -0.80546   1.70847
C     1.65474   0.16026  -0.42233
C     2.22929   0.68040  -1.58734
N     2.81108   1.09387  -2.51869
N     0.30003   0.06268  -0.16656
C    -0.79165   0.35252  -0.83381
C    -0.69079   0.90204  -2.21676
C    -2.08281   0.11817  -0.17111
C    -3.24031  -0.13039  -0.93705
C    -4.46361  -0.38553  -0.31714
C    -4.56260  -0.38848   1.07737
C    -3.42438  -0.13179   1.85004
C    -2.19925   0.12131   1.23657
H     4.46956  -1.84375   1.87962
H     5.71022  -0.68695   1.32423
H     4.52785  -0.20439   2.57174
H     4.22721   0.08471  -0.25230
H     0.19829  -0.35548   0.77168
H    -1.67497   1.15692  -2.62239
H    -0.20319   0.18125  -2.89336
H    -0.07669   1.81636  -2.21635
H    -3.18058  -0.14961  -2.02583
H    -5.34521  -0.58692  -0.92982
H    -5.52262  -0.58247   1.56090
H    -3.49365  -0.11442   2.93999
H    -1.33639   0.35639   1.86389
