25
Generated by autodE on: 2022-06-03. E = -536.027203 Ha
C    -1.82509  -1.90806  -2.44376
C    -1.25354  -0.49240  -2.28059
C    -1.26963  -0.05401  -0.88960
C    -0.92493   0.19995   0.24499
C     0.09244   0.40456   1.28601
C    -0.34057  -0.08718   2.61072
N    -0.66612  -0.50630   3.64073
C     0.40757   1.84610   1.40500
N     0.68269   2.97013   1.46605
C     1.38476  -0.38336   0.83384
C     1.84458  -0.10540  -0.60887
C     1.28422  -0.99474  -1.75488
C     0.23940  -0.38549  -2.71433
H    -1.24744  -2.63923  -1.85786
H    -1.78706  -2.20329  -3.50328
H    -2.87232  -1.95270  -2.10910
H    -1.84390   0.19647  -2.90629
H     2.17792  -0.12034   1.54906
H     1.15515  -1.45055   0.96843
H     1.69993   0.96183  -0.84873
H     2.93535  -0.25005  -0.58936
H     2.14412  -1.27764  -2.38127
H     0.90639  -1.94327  -1.33724
H     0.31951  -0.88087  -3.69565
H     0.48129   0.67723  -2.87845
