31
Generated by autodE on: 2022-06-03. E = -651.922710 Ha
C     4.32118   1.69201  -0.14054
N     3.04266   1.24927   0.36998
C     2.54256   0.00418   0.02552
O     3.32357  -0.83396  -0.50055
C     1.16159  -0.17073   0.34503
N     0.40751  -1.31351   0.15675
C     1.10664  -2.61595   0.13830
C    -0.92505  -1.33166   0.11774
C    -1.65509  -2.63793   0.22699
C    -1.70569  -0.08251   0.01855
C    -2.83390   0.11099   0.83879
C    -3.62754   1.25418   0.70921
C    -3.32095   2.21826  -0.25357
C    -2.20962   2.03103  -1.08696
C    -1.40691   0.90144  -0.94878
H     5.11548   0.97957   0.12588
H     4.56897   2.66401   0.30726
H     4.33620   1.80601  -1.24154
H     2.36367   1.97255   0.58224
H     0.59745   0.70038   0.66723
H     0.77397  -3.20635  -0.72370
H     2.17881  -2.43037   0.06415
H     0.87036  -3.16312   1.06072
H    -2.73645  -2.47099   0.16648
H    -1.43954  -3.15994   1.17600
H    -1.38121  -3.33022  -0.58617
H    -3.08633  -0.63728   1.59301
H    -4.49083   1.38853   1.36535
H    -3.94303   3.11011  -0.35874
H    -1.96970   2.77218  -1.85321
H    -0.54337   0.77103  -1.60342
