31
Generated by autodE on: 2022-07-27. E = -651.921477 Ha
C    -0.29627   1.43541   2.51136
N    -0.73532   0.27540   1.76068
C    -0.00340  -0.88946   1.79711
O     0.77920  -1.08993   2.76187
C    -0.20402  -1.90771   0.80899
N    -0.78301  -1.80656  -0.44250
C    -1.44692  -3.04077  -0.91208
C    -0.82148  -0.73498  -1.24021
C    -1.77598  -0.71907  -2.39926
C     0.08775   0.40923  -1.04148
C     1.44904   0.21490  -0.72095
C     2.30899   1.29861  -0.58006
C     1.83329   2.61011  -0.73204
C     0.49141   2.81770  -1.05270
C    -0.37091   1.72913  -1.21566
H     0.70455   1.78651   2.19918
H    -1.01134   2.25358   2.35334
H    -0.25447   1.21649   3.58804
H    -1.23732   0.48302   0.90796
H     0.14548  -2.90280   1.07737
H    -2.53659  -2.92909  -0.82630
H    -1.12613  -3.86993  -0.27398
H    -1.18357  -3.24974  -1.95563
H    -1.81268   0.27889  -2.85036
H    -1.45926  -1.41947  -3.19180
H    -2.79877  -1.00360  -2.10504
H     1.83097  -0.79667  -0.57573
H     3.36200   1.12357  -0.34674
H     2.50907   3.45868  -0.60405
H     0.10622   3.83259  -1.17616
H    -1.42052   1.90964  -1.45559
