56
Generated by autodE on: 2022-06-03. E = -1187.947139 Ha. Imaginary frequency = -170.5 cm-1
C    -8.46305   6.30504   9.77063
N    -8.98427   5.26805   8.90238
C    -8.48628   4.00497   8.94873
O    -7.79865   3.64162   9.92883
C    -8.82039   3.02414   7.91635
C    -6.93138   2.17450   6.86113
C    -6.99639   2.23729   5.62567
C    -6.54680   1.89509   4.26273
C    -7.45225   2.39622   3.13477
C    -6.34825   0.36379   4.17545
C    -5.21609  -0.25610   5.00436
C    -5.36274  -0.35925   6.53627
C    -4.87798   0.84779   7.35969
C    -6.02560   1.73604   7.96354
C    -5.36803   2.91364   8.57199
N    -4.75399   3.82840   8.93379
C    -6.73434   0.95426   8.99698
N    -7.26768   0.24909   9.74669
C    -9.22098   4.12854   5.77130
C   -10.06259   4.13359   4.52204
C    -8.42688   5.36749   6.01690
C    -7.10146   5.40038   6.48666
C    -6.45547   6.61059   6.73071
C    -7.11344   7.82579   6.51300
C    -8.42401   7.81349   6.03086
C    -9.06953   6.60051   5.77619
N    -9.49967   3.22955   6.72754
C   -10.34198   2.08355   6.33105
H    -7.37053   6.41405   9.66197
H    -8.93712   7.25798   9.50396
H    -8.67796   6.09010  10.82870
H    -9.46048   5.57410   8.06415
H    -9.04922   2.06195   8.36750
H    -5.55435   2.36723   4.13281
H    -7.59395   3.48452   3.19585
H    -7.00853   2.16004   2.15473
H    -8.44295   1.91849   3.18526
H    -7.30530  -0.12643   4.42741
H    -6.15026   0.12598   3.11667
H    -5.09044  -1.28445   4.62723
H    -4.26891   0.26222   4.77075
H    -4.76042  -1.22157   6.85994
H    -6.40309  -0.61360   6.79933
H    -4.26976   1.52130   6.73884
H    -4.24791   0.52259   8.20094
H    -9.61491   4.80046   3.77666
H   -10.15759   3.13993   4.07112
H   -11.08449   4.50060   4.73106
H    -6.57584   4.46923   6.66434
H    -5.42823   6.59765   7.10257
H    -6.60771   8.77278   6.71488
H    -8.95330   8.75213   5.85080
H   -10.09842   6.61480   5.41330
H   -11.30640   2.43293   5.94535
H   -10.52277   1.45613   7.20740
H    -9.82402   1.49628   5.55769
