37
Generated by autodE on: 2022-06-05. E = -735.191415 Ha
C    -3.49185  -2.26934  -0.74576
C    -2.38300  -2.56788   0.05609
C    -1.47649  -1.56852   0.40670
C    -1.65149  -0.24127  -0.03895
C    -0.71250   0.82513   0.32994
C     0.63740   0.78342   0.51342
C     1.59880  -0.30236   0.25571
C     1.47246  -1.14910  -0.86384
C     2.40344  -2.15941  -1.10626
C     3.48510  -2.34630  -0.23756
C     3.63212  -1.50515   0.86973
C     2.70352  -0.48933   1.10910
C     1.08609   2.21154   0.81781
C     0.97276   2.98034  -0.53878
C    -0.56426   3.03658  -0.77210
C    -1.12960   2.28782   0.47728
C    -0.14451   2.75719   1.56438
C    -2.78457   0.04827  -0.82627
C    -3.68865  -0.95599  -1.18183
H    -4.20082  -3.05412  -1.01984
H    -2.22840  -3.58782   0.41707
H    -0.62561  -1.81068   1.04499
H     0.63904  -1.00287  -1.55265
H     2.28871  -2.80175  -1.98294
H     4.21309  -3.13855  -0.42762
H     4.47579  -1.63916   1.55125
H     2.82604   0.16214   1.97720
H     2.06413   2.30414   1.30617
H     1.40281   3.98884  -0.44236
H     1.51289   2.46019  -1.34304
H    -0.87612   2.55427  -1.70930
H    -0.92950   4.07469  -0.78995
H    -2.19881   2.45223   0.66073
H    -0.31040   2.26707   2.53532
H    -0.12849   3.85076   1.69578
H    -2.95104   1.06875  -1.17668
H    -4.55373  -0.70858  -1.80215
