54
Generated by autodE on: 2022-06-05. E = -1281.872587 Ha. Imaginary frequency = -94.2 cm-1
C    -3.33808   3.64112  -0.46720
N    -2.28424   2.97958   0.27919
C    -2.40128   1.67643   0.59407
O    -3.41880   1.01461   0.37817
N    -1.39128   1.03641   1.38421
O    -0.23294   1.60232   1.56332
N     0.30466   2.32942   0.56744
C     1.59570   2.72367   0.90845
C     2.07884   2.60556   2.32394
O     2.28078   3.16768  -0.00922
C     0.58252  -0.08350  -0.67384
C     1.74150  -0.34743   0.16880
C     1.60294  -0.83008   1.49164
C     2.72279  -1.07108   2.28402
C     4.00756  -0.83009   1.78438
C     4.16182  -0.33471   0.48534
C     3.04456  -0.09012  -0.31178
C     0.64628   0.56705  -2.04628
C     0.67318  -0.63324  -3.05129
C    -0.76281  -1.21859  -2.92652
C    -1.42587  -0.29168  -1.84765
C    -0.79848   1.05615  -2.23233
C    -0.69359  -0.64675  -0.56100
C    -1.07280  -1.88163   0.16945
C    -0.21824  -3.00041   0.11954
C    -0.58774  -4.20914   0.71204
C    -1.81925  -4.32463   1.36400
C    -2.68291  -3.22522   1.40403
C    -2.31925  -2.01772   0.80387
H    -3.41764   3.23838  -1.49174
H    -4.30821   3.50523   0.03072
H    -3.11171   4.71287  -0.52333
H    -1.34183   3.36335   0.24595
H     3.08770   3.02940   2.39229
H     2.09926   1.54814   2.62582
H     1.39628   3.12959   3.00992
H     0.61100  -1.00214   1.90412
H     2.59181  -1.44091   3.30342
H     4.88432  -1.02073   2.40743
H     5.16072  -0.13715   0.08987
H     3.18190   0.29291  -1.32301
H     1.44250   1.30707  -2.17906
H     0.87247  -0.26082  -4.06673
H     1.45727  -1.36086  -2.79820
H    -1.32045  -1.12816  -3.86992
H    -0.77498  -2.27528  -2.62662
H    -2.51826  -0.36522  -1.79446
H    -1.05478   1.88225  -1.56559
H    -1.01615   1.33979  -3.27236
H     0.74058  -2.92150  -0.39478
H     0.08959  -5.06501   0.66082
H    -2.10699  -5.26851   1.83314
H    -3.64978  -3.30764   1.90660
H    -2.98979  -1.15935   0.83682
