21
Generated by autodE on: 2022-06-15. E = -678.332719 Ha
C    -2.87024  -1.66917  -0.87808
N    -1.63516  -1.26454  -0.23400
C    -0.96188  -0.18504  -0.63821
O    -1.30388   0.59016  -1.53467
C     0.35981   0.07016   0.03102
O     0.81618   1.24823   0.23473
N     0.18765   2.46971   0.23257
C    -1.12589   2.42317   0.37506
N    -2.27376   2.56136   0.58744
C     1.33777  -1.03842   0.32037
O     0.90852  -2.18549   0.48811
N     2.62380  -0.68877   0.40174
C     3.65032  -1.66264   0.72400
H    -2.67785  -2.18147  -1.83542
H    -3.41296  -2.35103  -0.21231
H    -3.48964  -0.78451  -1.07767
H    -1.13333  -1.91622   0.37055
H     2.87955   0.28741   0.28205
H     3.53617  -2.03267   1.75543
H     3.59149  -2.52429   0.04239
H     4.63186  -1.18670   0.61982
