67
Generated by autodE on: 2022-06-15. E = -1829.347750 Ha. Imaginary frequency = -183.0 cm-1
C    -0.52926 -15.20069   6.53988
N     0.60108 -15.67208   5.77188
C     1.37183 -14.87237   5.02233
O     1.15780 -13.67696   4.81905
C     2.55565 -15.57398   4.38412
C     2.61003 -17.07631   4.15186
O     1.68850 -17.81736   4.50948
N     3.71702 -17.49047   3.51996
C     3.97860 -18.87743   3.19825
O     3.24831 -14.97851   3.45511
N     3.63733 -13.67650   3.64491
C     4.17111 -13.25131   2.50554
N     4.61983 -12.73805   1.55121
C     4.90886 -14.40599   5.64127
C     4.07274 -15.10171   6.23048
C     3.70828 -15.72891   7.54632
C     2.67513 -14.87723   8.29644
C     2.22831 -15.28762   9.56507
C     1.35014 -14.49726  10.30810
C     0.90998 -13.26754   9.80629
C     1.37054 -12.83690   8.56153
C     2.25037 -13.63206   7.81975
C     3.30500 -17.20358   7.33581
C     4.23579 -18.05924   6.72211
C     3.96160 -19.41581   6.54713
C     2.73977 -19.94662   6.97146
C     1.79952 -19.10317   7.56529
C     2.07999 -17.74467   7.74608
C     5.02088 -15.74747   8.42199
C     5.54237 -14.42652   8.99622
C     5.97215 -13.31309   8.02785
C     6.89576 -13.77205   6.88390
C     6.21300 -13.73977   5.47234
C     6.13208 -12.28768   4.97835
C     7.06178 -14.58686   4.50794
F     8.30296 -14.09079   4.38231
F     6.53195 -14.64568   3.27121
F     7.18342 -15.86197   4.92837
H    -0.45036 -15.56223   7.57643
H    -1.47962 -15.56368   6.11550
H    -0.53960 -14.10543   6.54205
H     0.80787 -16.67186   5.73715
H     4.43352 -16.80283   3.30488
H     4.04328 -19.01734   2.10745
H     4.92873 -19.20013   3.64833
H     3.16585 -19.49804   3.59015
H     2.57535 -16.23205   9.98599
H     1.01327 -14.84257  11.28850
H     0.22154 -12.64892  10.38670
H     1.04709 -11.87496   8.15688
H     2.60184 -13.27145   6.85513
H     5.18349 -17.65699   6.36007
H     4.70303 -20.05844   6.06790
H     2.52104 -21.00795   6.83270
H     0.83332 -19.49790   7.88844
H     1.32219 -17.10974   8.20104
H     5.80825 -16.23762   7.83361
H     4.81212 -16.41837   9.26921
H     6.41670 -14.70009   9.61202
H     4.80109 -14.01071   9.69657
H     6.49087 -12.54408   8.62028
H     5.08155 -12.81410   7.61786
H     7.78452 -13.12960   6.81442
H     7.25813 -14.79051   7.07916
H     7.13213 -11.83432   5.01001
H     5.75375 -12.21105   3.95430
H     5.46815 -11.71396   5.63837
