36
Generated by autodE on: 2022-06-17. E = -692.431744 Ha
C    -1.41063  -3.47207   0.35036
C    -1.46222  -2.17665   0.01230
C    -2.30005  -1.66049  -1.12537
C    -0.64976  -1.16121   0.79058
C     0.32278  -0.31286  -0.08040
C     1.66654  -0.11144   0.57024
C     2.87361  -0.15854  -0.02203
C     4.12904   0.10693   0.76564
C     3.09614  -0.43902  -1.48310
C    -0.44811   0.99917  -0.14757
C    -0.10560   2.11887  -1.00338
C    -0.87379   3.41048  -0.85566
O     0.81374   2.01752  -1.82618
N    -1.43913   1.03645   0.70744
N    -1.51649  -0.10293   1.37028
C    -2.68314  -0.40867   2.16567
H    -1.97265  -4.22885  -0.20541
H    -0.79855  -3.81582   1.18979
H    -1.67622  -1.17565  -1.89455
H    -3.01593  -0.89749  -0.77785
H    -2.86707  -2.47240  -1.60263
H    -0.11877  -1.67424   1.60383
H     0.44064  -0.75120  -1.07933
H     1.62411   0.13409   1.63824
H     4.81157  -0.76016   0.72132
H     3.91633   0.32855   1.82198
H     4.68534   0.95925   0.33648
H     2.18437  -0.73664  -2.01632
H     3.85124  -1.23327  -1.61219
H     3.49881   0.45935  -1.98288
H    -0.36881   4.03451  -0.09809
H    -0.85700   3.95567  -1.80966
H    -1.90643   3.25021  -0.52143
H    -3.50084  -0.84116   1.56218
H    -3.04273   0.51252   2.64240
H    -2.40868  -1.13219   2.94631
