36
Generated by autodE on: 2022-06-17. E = -692.338643 Ha. Imaginary frequency = -342.0 cm-1
C    -2.25590  -3.23857   0.10266
C    -1.43455  -2.34873  -0.50352
C    -1.65867  -1.91382  -1.92763
C    -0.30539  -1.82333   0.24201
C     0.62003  -0.89961  -0.21702
C     1.81400  -0.60458   0.58304
C     2.87510   0.14911   0.21887
C     4.02945   0.35516   1.15955
C     3.00017   0.85338  -1.10219
C    -0.51088   0.85185  -0.04957
C    -0.57509   1.57233  -1.28647
C    -1.17408   2.96281  -1.18393
O    -0.18037   1.12627  -2.36977
N    -1.05092   0.97176   1.07269
N    -1.28449   0.28806   2.08464
C    -1.81913   1.00276   3.23855
H    -3.10776  -3.67787  -0.42335
H    -2.09162  -3.54186   1.14077
H    -0.76902  -2.11242  -2.54707
H    -1.84665  -0.83143  -1.98943
H    -2.51512  -2.44146  -2.36967
H    -0.18023  -2.21240   1.25607
H     0.64208  -0.67586  -1.28862
H     1.82248  -1.04832   1.58492
H     4.97149  -0.00570   0.70957
H     3.88162  -0.16140   2.11934
H     4.17952   1.43094   1.36167
H     2.18494   0.63172  -1.80043
H     3.95888   0.59659  -1.58530
H     3.01945   1.94681  -0.94459
H    -0.84416   3.48650  -0.27639
H    -0.89745   3.53496  -2.07984
H    -2.27220   2.87249  -1.14158
H    -2.45181   1.85576   2.94492
H    -0.99839   1.38181   3.87311
H    -2.41135   0.30264   3.84356
