59
Generated by autodE on: 2022-10-23. E = -1417.648032 Ha
C    -0.19832  -1.30336  -3.26404
O    -0.28881  -1.25589  -1.84673
C    -0.35414  -0.03420  -1.13405
O    -0.01725   1.06617  -1.88136
C    -0.88728   1.61159  -2.88357
C    -1.79488   0.00615  -0.40615
C    -2.78948  -0.93949  -1.13994
C    -3.50603  -1.99548  -0.35350
O    -3.01973  -0.75838  -2.31945
C    -2.47898   1.41979  -0.34078
C    -1.82491   2.52621   0.43390
O    -3.49774   1.61956  -0.97301
N    -1.43858  -0.46286   0.93631
C    -2.26337  -0.30238   2.00870
C    -1.85635  -0.90399   3.32306
O    -3.34356   0.28045   1.86310
N    -0.15648  -1.04073   1.02190
C    -0.18464  -2.49954   0.84218
C     0.64936  -0.20807   0.10313
C     1.01472   1.12202   0.79523
C     0.79104   1.31001   2.16437
C     1.16397   2.49888   2.79901
C     1.78265   3.51957   2.07534
C     2.05160   3.32415   0.71638
C     1.68421   2.13404   0.08708
C     1.99624  -0.84736  -0.23389
C     2.75314  -1.39760   0.81460
C     4.03237  -1.90566   0.58691
C     4.59247  -1.85223  -0.69379
C     3.86302  -1.27288  -1.73379
C     2.57771  -0.77038  -1.50547
H    -1.17946  -1.15396  -3.73764
H     0.17107  -2.30916  -3.50723
H     0.51337  -0.56708  -3.66175
H    -1.15445   2.63749  -2.59084
H    -0.33818   1.64138  -3.83504
H    -1.79633   1.01429  -3.00758
H    -4.16131  -1.49876   0.37948
H    -4.10934  -2.60615  -1.03675
H    -2.81155  -2.62876   0.21294
H    -0.93462   2.86739  -0.11506
H    -2.54033   3.35453   0.51309
H    -1.48970   2.21448   1.42717
H    -2.19552  -0.23953   4.12886
H    -2.38919  -1.86319   3.43023
H    -0.78215  -1.09815   3.40171
H    -0.51217  -2.82149  -0.15641
H    -0.86143  -2.91639   1.60004
H     0.81274  -2.90750   1.03437
H     0.31785   0.52254   2.74391
H     0.96542   2.62272   3.86629
H     2.06883   4.45231   2.56705
H     2.55979   4.10159   0.14076
H     1.92223   1.99439  -0.96483
H     2.34101  -1.41622   1.82461
H     4.59704  -2.33693   1.41688
H     5.59483  -2.24724  -0.87476
H     4.29379  -1.20400  -2.73548
H     2.04558  -0.29666  -2.32570
