42
Generated by autodE on: 2022-05-30. E = -1131.857392 Ha
C     5.39408   0.21169  -1.04043
O     4.24564   0.47663  -0.22270
C     3.06569   0.55035  -0.85203
O     2.93171   0.41349  -2.05722
C     1.95080   0.80505   0.05373
C     1.84027   0.71235   1.39078
F     2.75493   0.41811   2.28956
C     0.36803   0.83923   1.73289
O    -0.05676   1.73343   0.69878
C     0.50481   0.99395  -0.39857
C    -0.17818  -0.40008  -0.24689
C    -0.27166  -0.51945   1.30448
C    -1.76941  -0.73357   1.65314
C    -1.98782  -2.22440   1.97314
C    -2.24565   0.10575   2.84065
N    -2.47435  -0.29548   0.41784
C    -3.87916  -0.64495   0.28788
C    -1.65484  -0.52293  -0.75039
C    -1.83603  -1.88578  -1.32490
N    -2.03868  -2.96205  -1.70967
C    -1.92078   0.48298  -1.90949
C    -2.41333   1.85085  -1.55342
O    -1.69457   0.13263  -3.05113
H     6.25149   0.19042  -0.35788
H     5.52524   1.00544  -1.79023
H     5.28992  -0.75738  -1.54986
H     0.13417   1.21033   2.73416
H     0.37888   1.51430  -1.35256
H     0.44045  -1.16652  -0.72401
H     0.32527  -1.34854   1.70143
H    -1.64089  -2.87356   1.15579
H    -3.04946  -2.44110   2.16063
H    -1.42461  -2.49258   2.87943
H    -1.64354  -0.11977   3.73353
H    -2.17396   1.18145   2.62779
H    -3.29338  -0.12602   3.08290
H    -4.42950  -0.31074   1.17779
H    -4.05739  -1.72962   0.15837
H    -4.31712  -0.13344  -0.58159
H    -2.26737   2.52154  -2.41016
H    -3.49101   1.78986  -1.32869
H    -1.92289   2.23882  -0.65262
