23
Generated by autodE on: 2022-07-27. E = -497.014668 Ha
C     0.75099   0.33832  -2.95195
C     0.56749   0.79185  -1.51883
O     1.00409   1.91047  -1.16759
C    -0.10872  -0.07488  -0.61590
C    -0.60067  -1.34726  -0.94300
N    -1.01495  -2.41714  -1.18835
N    -0.32889   0.38178   0.73137
C    -1.11233   1.62021   0.89682
C     0.07385  -0.29501   1.77661
C     0.92826  -1.49963   1.62077
C    -0.32353   0.13867   3.14518
H     0.40922  -0.68739  -3.14243
H     1.81672   0.42042  -3.21702
H     0.19843   1.02585  -3.61325
H    -2.10611   1.37281   1.29730
H    -0.60295   2.30692   1.58412
H    -1.22018   2.09684  -0.07922
H     1.56310  -1.43180   0.72641
H     0.29152  -2.39566   1.50808
H     1.53781  -1.63834   2.52363
H    -0.10579  -0.65069   3.87400
H     0.25362   1.03757   3.42643
H    -1.38857   0.40718   3.19784
