42
Generated by autodE on: 2022-05-30. E = -1131.773006 Ha. Imaginary frequency = -325.0 cm-1
C     5.62205   0.88763  -0.72362
O     4.38660   0.91269   0.00295
C     3.26445   0.75151  -0.71574
O     3.25976   0.59138  -1.92648
C     2.05825   0.78901   0.09690
C     1.85614   0.78209   1.42714
F     2.72484   0.78334   2.41395
C     0.34381   0.65729   1.65678
O    -0.11297   1.41118   0.52737
C     0.62429   0.66294  -0.46313
C     0.14848  -0.76318  -0.14545
C    -0.04587  -0.77422   1.22890
C    -2.20995  -1.01855   1.51265
C    -2.13963  -2.52923   1.49281
C    -2.50335  -0.44788   2.87136
N    -2.67484  -0.33805   0.42609
C    -3.35991   0.94948   0.63135
C    -2.26272  -0.68564  -0.86830
C    -2.40657  -2.02521  -1.32076
N    -2.52878  -3.09579  -1.77249
C    -2.01271   0.30625  -1.91186
C    -1.63074  -0.23240  -3.27599
O    -2.04736   1.52717  -1.72335
H     5.65073   1.69798  -1.46685
H     6.41322   1.03089   0.02158
H     5.75271  -0.07803  -1.23368
H    -0.03423   1.03915   2.61041
H     0.47840   1.05484  -1.47230
H     0.34200  -1.61574  -0.79354
H     0.15590  -1.62820   1.87338
H    -1.54811  -2.94520   0.67391
H    -3.16580  -2.92789   1.41282
H    -1.70946  -2.88167   2.43864
H    -1.86462  -0.94662   3.61200
H    -2.33385   0.63360   2.93319
H    -3.55293  -0.64908   3.15188
H    -4.09955   0.83077   1.43172
H    -2.65644   1.75058   0.89037
H    -3.88545   1.22263  -0.28527
H    -0.79393  -0.94413  -3.20918
H    -1.34393   0.61236  -3.91508
H    -2.47758  -0.76403  -3.73809
