26
Generated by autodE on: 2022-06-22. E = -689.460859 Ha
C    -2.97558  -1.63079   0.13879
O    -1.57635  -1.81746   0.37491
C    -0.67358  -0.86376   0.14752
C    -0.84700   0.38080  -0.38059
O    -2.05286   0.83904  -0.82854
C    -2.67680   1.84730  -0.02652
C     0.31328   1.27600  -0.57814
O     0.14742   2.37440  -1.10598
C     1.67426   0.83392  -0.14878
C     2.80700   1.79205  -0.33985
C     1.85951  -0.40403   0.37288
C     3.20847  -0.89751   0.79606
C     0.70442  -1.32129   0.54622
O     0.84032  -2.44242   1.01660
H    -3.44769  -2.57312   0.44438
H    -3.17572  -1.44133  -0.92359
H    -3.37147  -0.80727   0.75014
H    -3.62713   2.09441  -0.51803
H    -2.05320   2.75105   0.03824
H    -2.87875   1.46598   0.98830
H     3.31503   1.99063   0.61820
H     3.56769   1.36549  -1.01491
H     2.45576   2.74164  -0.75998
H     3.15243  -1.92022   1.18696
H     3.91338  -0.87999  -0.05137
H     3.63593  -0.24394   1.57434
