20
Generated by autodE on: 2022-06-22. E = -589.919679 Ha
C    -0.22587   2.79267  -0.24484
O    -0.65765   1.61342  -0.05698
C    -0.09583   0.37832  -0.02011
C    -1.06674  -0.69445   0.24085
O    -0.72666  -1.88679   0.31619
N    -2.35941  -0.29994   0.39380
C    -3.44069  -1.22261   0.65770
C     1.32272   0.27384  -0.23499
O     2.04926   1.24787  -0.44640
O     1.81379  -0.98007  -0.19054
C     3.22287  -1.11298  -0.39877
H     0.83238   2.97546  -0.42966
H    -0.99764   3.56525  -0.20225
H    -2.57738   0.68671   0.32266
H    -3.93485  -0.99876   1.61742
H    -3.03514  -2.24000   0.70316
H    -4.20389  -1.18429  -0.13687
H     3.51203  -0.73771  -1.39189
H     3.78849  -0.56659   0.37080
H     3.43591  -2.18651  -0.32796
