36
Generated by autodE on: 2022-06-18. E = -804.620475 Ha
C    -1.70750   3.00958   0.33759
C    -1.46256   1.77667   0.80468
C    -1.80456   1.37629   2.21413
C    -0.80865   0.76520  -0.10913
C     0.59569   0.24737   0.35123
C     1.73964   0.78480  -0.45115
C     2.94966   1.14542   0.01559
C     4.01598   1.64919  -0.91940
C     3.36351   1.07515   1.46015
C     0.41151  -1.31206   0.28392
C     1.45294  -2.13858   0.98716
N    -0.98152  -1.42268   0.77875
C    -1.54181  -0.59985  -0.25879
C    -2.99815  -0.56582  -0.34311
N    -4.15349  -0.51051  -0.40330
O    -1.02589  -1.17447  -1.52460
C     0.22236  -1.62273  -1.20208
O     0.96866  -2.11757  -2.00666
H    -2.15620   3.77837   0.97364
H    -1.46290   3.28849  -0.69156
H    -2.21242   2.23069   2.77270
H    -0.92334   0.99668   2.75561
H    -2.55406   0.56823   2.23232
H    -0.74479   1.19735  -1.11497
H     0.72717   0.46465   1.41736
H     1.56224   0.86267  -1.53026
H     4.92124   1.02056  -0.85219
H     3.67767   1.66165  -1.96588
H     4.32845   2.67086  -0.64011
H     2.54891   0.79222   2.13913
H     4.17728   0.33950   1.58429
H     3.77079   2.04610   1.79049
H     1.51351  -1.85441   2.04711
H     1.21890  -3.21128   0.91482
H     2.43359  -1.96607   0.52107
H    -1.32501  -2.38465   0.69880
