23
Generated by autodE on: 2022-06-18. E = -351.521382 Ha
C     3.27377  -1.60843  -0.99858
C     2.44696  -0.64900  -0.52769
C     2.97850   0.68099  -0.05752
C     1.00690  -0.89139  -0.46653
C     0.07587  -0.01372  -0.01504
C    -1.34277  -0.30434   0.02437
C    -2.33262   0.51479   0.46141
C    -3.76690   0.06737   0.43841
C    -2.11349   1.90189   0.99553
H     2.88534  -2.57322  -1.33917
H     4.35480  -1.45326  -1.05482
H     4.07189   0.73078  -0.15799
H     2.53928   1.51125  -0.63519
H     2.71922   0.86163   0.99895
H     0.67089  -1.87340  -0.82079
H     0.40345   0.96718   0.33979
H    -1.63304  -1.29661  -0.34185
H    -4.20270   0.09772   1.45329
H    -4.38015   0.75025  -0.17681
H    -3.87819  -0.95261   0.04217
H    -2.50531   1.98059   2.02507
H    -1.06027   2.21057   1.00651
H    -2.68077   2.63588   0.39622
