13
Generated by autodE on: 2022-06-18. E = -453.064706 Ha
C    -2.60280   0.91690   0.59692
C    -1.27057   0.37725   0.23410
N    -0.08185   0.85486   0.68042
C     0.93883   0.15843   0.17457
C     2.30586   0.34375   0.40286
N     3.44802   0.49782   0.59211
O     0.45027  -0.80418  -0.62348
C    -0.97095  -0.71567  -0.62747
O    -1.63927  -1.49364  -1.28978
H    -3.37340   0.34212   0.06577
H    -2.70465   1.97755   0.31456
H    -2.79558   0.83600   1.67948
H     0.03097   1.64379   1.32016
