18
Generated by autodE on: 2022-07-27. E = -618.944720 Ha
C     2.23894  -0.72604  -2.93620
N     1.11531  -0.01873  -2.34965
C     0.93173   0.01088  -1.02164
O     1.65952  -0.56817  -0.21106
C    -0.19411   0.86523  -0.53108
C    -0.56102   2.03330  -1.24279
N    -0.84424   2.98049  -1.86084
N    -0.76521   0.67010   0.65895
C    -0.75774  -0.37977   1.51418
C    -0.31899  -1.68203   1.17898
N    -0.05298  -2.79762   0.97094
C    -1.34811  -0.19395   2.78893
N    -1.82376  -0.06411   3.84527
H     2.18831  -1.80326  -2.71289
H     3.19237  -0.33990  -2.54451
H     2.21458  -0.58441  -4.02273
H     0.45418   0.44996  -2.96200
H    -1.33413   1.45704   0.99271
