13
Generated by autodE on: 2022-05-29. E = -449.162425 Ha
C    -3.00700   0.85822  -0.25883
N    -2.59139  -0.10233   0.74742
C    -1.35147  -0.55466   0.95994
O    -1.00168  -1.37269   1.80695
C    -0.30811  -0.00214   0.07867
N     0.66136   0.28848  -0.49529
N     1.60451   0.72329  -1.22810
C     2.83036   0.27369  -0.99184
N     3.95393  -0.03925  -0.89091
H    -2.13560   1.21670  -0.82338
H    -3.49107   1.72484   0.21445
H    -3.71271   0.39854  -0.96649
H    -3.30168  -0.49650   1.36286
