16
Generated by autodE on: 2022-05-29. E = -743.987483 Ha
F    -0.81475  -0.50348   2.12623
C    -0.85843  -0.37919   0.81519
C     0.12582  -0.22135  -0.07325
C     1.58016  -0.05710   0.11000
F     2.29193  -0.91030  -0.65758
F     1.96180  -0.25436   1.38347
F     1.98265   1.18616  -0.24193
C    -0.63916   0.00183  -1.40400
C    -1.34171   1.37636  -1.31004
C    -2.30791   1.20985  -0.40290
C    -2.18321  -0.26866   0.03616
O    -1.76228  -0.87737  -1.19478
H    -0.08848  -0.23244  -2.32085
H    -1.03707   2.27093  -1.85158
H    -3.01519   1.92627   0.01230
H    -3.05537  -0.75481   0.48533
