29
Generated by autodE on: 2022-05-29. E = -1193.148684 Ha. Imaginary frequency = -306.5 cm-1
C     4.58328   0.99431  -1.18378
N     3.50816   0.21990  -0.58700
C     2.32187   0.11025  -1.19031
O     2.00136   0.62560  -2.25845
C     1.32766  -0.71288  -0.46209
N     0.88319  -1.78990  -0.22106
N    -0.18166  -2.44832   0.04767
C    -0.15597  -3.35496   1.01515
N    -0.28454  -4.17176   1.84304
C    -1.53869  -0.42837   0.48625
F    -1.82376  -0.80814   1.71865
C    -2.49660  -0.66281  -0.68776
C    -3.38910   0.59800  -0.75130
C    -2.57143   1.57651  -1.15207
C    -1.19084   0.90510  -1.32343
O    -1.58396  -0.40675  -1.76251
C    -0.66799   0.55119   0.09755
C    -0.02079   1.53107   1.00345
F     0.98355   2.20056   0.39770
F    -0.89323   2.47663   1.42600
F     0.48691   0.94806   2.10321
H     4.84227   0.60277  -2.17905
H     4.28849   2.04949  -1.29266
H     5.46228   0.93068  -0.53261
H     3.64805  -0.23109   0.31353
H    -2.97383  -1.64507  -0.74808
H    -4.43943   0.63300  -0.46599
H    -2.77105   2.63778  -1.29362
H    -0.46780   1.36850  -1.99990
