49
Generated by autodE on: 2022-06-20. E = -962.987566 Ha
C     0.22629  -2.41538  -2.73324
N    -0.63331  -1.92893  -1.67255
C    -0.65960  -2.51145  -0.46367
O    -0.07220  -3.57167  -0.21932
C    -1.52736  -1.82509   0.61280
C    -2.81467  -2.64289   0.74490
C    -0.75501  -1.70374   1.93869
C    -0.10681  -0.29618   1.86263
C    -0.05332   0.35873   3.25100
C     1.28420  -0.41223   1.26838
C     1.63818  -0.13716  -0.00134
C     2.97074  -0.34679  -0.54135
C     3.36775  -0.11870  -1.81670
C     4.78311  -0.39001  -2.24394
C     2.47185   0.40731  -2.90345
C    -1.08416   0.37613   0.88365
C    -1.17782   1.83787   0.67284
C    -2.37188   2.39059   0.17140
C    -2.48342   3.76178  -0.05300
C    -1.40034   4.60762   0.21353
C    -0.20836   4.07060   0.70777
C    -0.09735   2.69803   0.94101
N    -1.82943  -0.43630   0.22243
H    -0.02778  -3.45266  -3.00030
H     1.28588  -2.39218  -2.43109
H     0.09516  -1.78200  -3.61855
H    -1.05371  -1.00744  -1.74734
H    -3.35157  -2.68472  -0.21496
H    -2.57606  -3.66990   1.05829
H    -3.47412  -2.18731   1.49880
H    -0.02465  -2.50966   2.08069
H    -1.47123  -1.73373   2.77386
H     0.50120  -0.29486   3.94275
H     0.44994   1.33491   3.23542
H    -1.06851   0.49786   3.65369
H     2.03639  -0.81425   1.95856
H     0.88234   0.25783  -0.68392
H     3.71564  -0.73510   0.16348
H     5.25374   0.52545  -2.64525
H     5.40265  -0.76542  -1.41619
H     4.80901  -1.13088  -3.06308
H     2.86731   1.36165  -3.29420
H     1.43583   0.57328  -2.58220
H     2.45751  -0.29171  -3.75741
H    -3.21369   1.72831  -0.03373
H    -3.41977   4.17468  -0.43563
H    -1.48686   5.68237   0.03703
H     0.64359   4.72289   0.91282
H     0.84458   2.29355   1.30894
