23
Generated by autodE on: 2022-06-20. E = -351.521382 Ha
C     3.56469  -1.10958   0.60151
C     2.56102  -0.33179   0.13943
C     2.84045   0.91448  -0.66111
C     1.17167  -0.69460   0.41173
C     0.07894  -0.00151   0.00379
C    -1.27969  -0.40663   0.30184
C    -2.42159   0.22348  -0.07325
C    -2.46731   1.48415  -0.88923
C    -3.76553  -0.32409   0.31651
H     3.35827  -2.01418   1.18188
H     4.61285  -0.86191   0.41203
H     2.37669   0.85722  -1.65994
H     3.92065   1.07084  -0.79056
H     2.41773   1.80623  -0.16914
H     1.02139  -1.60934   0.99775
H     0.22082   0.91129  -0.58119
H    -1.38019  -1.32346   0.89536
H    -1.47695   1.87008  -1.16284
H    -3.00555   2.27629  -0.33933
H    -3.03911   1.31561  -1.81898
H    -4.33746   0.42016   0.89943
H    -4.37413  -0.54195  -0.57960
H    -3.68304  -1.24450   0.91300
