26
Generated by autodE on: 2022-06-20. E = -611.370210 Ha
C    -4.47402   1.14997  -1.14814
N    -3.69252   0.17157  -0.41984
C    -2.35631   0.06862  -0.59207
O    -1.73386   0.80745  -1.37420
C    -1.66960  -0.96960   0.21923
C    -2.37496  -1.84419   1.21812
N    -0.40410  -1.07858   0.00350
C     0.75023  -1.13417  -0.38003
C     1.89197  -0.34136   0.06170
C     3.19256  -0.87039  -0.01620
C     4.28459  -0.10460   0.39446
C     4.09191   1.20570   0.84570
C     2.80195   1.74931   0.89806
C     1.70323   0.97992   0.51986
H    -4.08668   2.16774  -0.98366
H    -4.45898   0.95698  -2.23364
H    -5.51277   1.10690  -0.79856
H    -4.17132  -0.47204   0.19911
H    -2.85972  -1.24272   2.00526
H    -1.66249  -2.52843   1.69754
H    -3.16030  -2.44958   0.73347
H     3.33294  -1.88566  -0.39290
H     5.29174  -0.52489   0.34840
H     4.95008   1.80920   1.15053
H     2.65417   2.77569   1.24206
H     0.69306   1.39423   0.55287
