49
Generated by autodE on: 2022-06-20. E = -962.890639 Ha. Imaginary frequency = -378.6 cm-1
C    -1.64865   3.72527  -0.06461
N    -1.47903   2.58055   0.80741
C    -2.54695   1.99861   1.40965
O    -3.66570   2.54015   1.42303
C    -2.35067   0.66051   2.01695
C    -3.36290   0.16879   3.00766
C    -2.86400  -0.46093  -0.00012
C    -1.67546  -1.02095  -0.45116
C    -1.42552  -2.50473  -0.29268
C    -0.84304  -0.25409  -1.37437
C     0.29634  -0.68399  -1.97488
C     1.11369   0.15143  -2.83220
C     2.32511  -0.15424  -3.36040
C     3.06450   0.83001  -4.22336
C     3.03970  -1.45811  -3.13430
C    -0.28315  -0.44174   1.43616
C     1.09491  -0.78004   1.28751
C     1.57421  -2.05722   1.64755
C     2.89248  -2.40677   1.35887
C     3.73500  -1.50987   0.69034
C     3.25645  -0.24882   0.31882
C     1.94442   0.12073   0.60867
N    -1.10201   0.18588   2.06952
H    -2.20065   4.52422   0.45077
H    -2.20374   3.46904  -0.98434
H    -0.66005   4.10846  -0.34816
H    -0.63166   2.03531   0.69616
H    -4.37222   0.35599   2.61721
H    -3.27891   0.68917   3.97839
H    -3.24136  -0.91011   3.18157
H    -3.23523   0.46690  -0.43811
H    -3.60594  -1.08598   0.50158
H    -2.01117  -2.91373   0.54369
H    -1.72419  -3.04382  -1.21052
H    -0.36725  -2.74702  -0.11699
H    -1.16348   0.78001  -1.55195
H     0.63971  -1.70306  -1.78009
H     0.70510   1.14625  -3.05035
H     2.50009   1.76375  -4.36529
H     3.27980   0.40011  -5.21867
H     4.04627   1.08158  -3.78226
H     3.20142  -1.98298  -4.09328
H     4.04319  -1.27636  -2.71147
H     2.50802  -2.13868  -2.45705
H     0.90925  -2.76029   2.15178
H     3.26338  -3.39201   1.65030
H     4.76190  -1.79671   0.45386
H     3.90645   0.45107  -0.21076
H     1.56309   1.09777   0.30822
