29
Generated by autodE on: 2022-06-16. E = -663.125925 Ha
C     3.74214   0.22746   0.25555
N     2.36801   0.45699  -0.13781
C     1.55575  -0.56565  -0.47522
O     1.92886  -1.73872  -0.57839
N     0.23097  -0.21457  -0.78833
C    -0.82604  -1.22704  -0.56665
C    -1.51361  -1.66142  -1.85384
C    -1.74157  -0.56872   0.52209
C    -3.21688  -0.42906   0.18799
N    -1.08800   0.76222   0.74558
C    -0.53907   0.99940   1.93987
N    -0.11063   1.25324   2.99622
N    -0.20315   1.05093  -0.34601
C    -0.87167   1.83257  -1.38894
H     4.22690  -0.46797  -0.44384
H     3.82328  -0.19828   1.27088
H     4.28583   1.18085   0.23428
H     1.91857   1.34488   0.06518
H    -0.33460  -2.10276  -0.12753
H    -2.27287  -2.42944  -1.64445
H    -1.99955  -0.82503  -2.37421
H    -0.76415  -2.10075  -2.52870
H    -1.63730  -1.13587   1.45609
H    -3.66623  -1.42313   0.04764
H    -3.38220   0.15905  -0.72454
H    -3.73963   0.06490   1.02033
H    -1.75868   1.33509  -1.81201
H    -1.16776   2.79688  -0.95522
H    -0.14051   2.01331  -2.18790
