12
Generated by autodE on: 2022-06-16. E = -157.299004 Ha
C     1.63030  -0.40677   0.01998
C     0.60950   0.68035  -0.13737
C    -0.72669   0.56542  -0.07552
C    -1.52823  -0.67876   0.16538
H     2.31536  -0.18250   0.85673
H     1.18304  -1.39406   0.20410
H     2.26380  -0.48297  -0.88145
H     1.01966   1.68113  -0.32358
H    -1.31669   1.48019  -0.21533
H    -2.22356  -0.86527  -0.67211
H    -0.90403  -1.57467   0.29307
H    -2.15745  -0.57140   1.06669
