17
Generated by autodE on: 2022-06-16. E = -505.775555 Ha
C     3.06700   0.70430   0.18709
N     1.91578  -0.01298   0.70262
C     0.93678  -0.42056  -0.11109
O     0.94456  -0.33180  -1.33726
N    -0.10445  -1.12750   0.56558
N    -1.31047  -0.78982   0.36502
C    -2.34177  -1.74763   0.81625
N    -1.82929   0.29054  -0.16688
C    -1.07086   1.33940  -0.43058
N    -0.55590   2.36528  -0.66665
H     3.59045   0.10796  -0.57522
H     3.75581   0.90839   1.01495
H     2.76308   1.65950  -0.27090
H     1.79197  -0.12454   1.70447
H    -2.95367  -1.25431   1.58107
H    -2.96307  -1.99659  -0.05307
H    -1.83677  -2.63220   1.21141
