29
Generated by autodE on: 2022-06-16. E = -663.051726 Ha. Imaginary frequency = -380.3 cm-1
C     3.77216   0.08605   0.82136
N     2.50317   0.37637   0.18400
C     1.73129  -0.61457  -0.30742
O     2.08008  -1.79642  -0.28738
N     0.55081  -0.21458  -0.99055
C    -0.85967  -1.68850  -0.44712
C    -1.67107  -1.84350  -1.70329
C    -1.39005  -1.17325   0.74330
C    -2.81853  -0.75932   0.91771
N    -0.37668   0.88962   0.70869
C    -1.15400   1.86492   1.14228
N    -1.84473   2.65910   1.65989
N    -0.04365   0.88008  -0.59235
C    -0.88821   1.57572  -1.56888
H     4.25020   1.03375   1.09811
H     4.44270  -0.46155   0.14114
H     3.64034  -0.52247   1.73112
H     2.16001   1.32989   0.18165
H    -0.02657  -2.38286  -0.33545
H    -2.31690  -2.73611  -1.61932
H    -2.32850  -0.98562  -1.89879
H    -1.02067  -1.98673  -2.57752
H    -0.83336  -1.38846   1.65834
H    -3.43263  -1.65155   1.14261
H    -3.23741  -0.29372   0.01472
H    -2.94693  -0.06423   1.76069
H    -0.47872   1.38502  -2.56527
H    -1.92302   1.20967  -1.49953
H    -0.86762   2.65271  -1.35477
