45
Generated by autodE on: 2022-05-31. E = -1068.877589 Ha
C    -1.85873   3.75572  -1.54185
N    -1.37252   2.66860  -0.71496
C    -1.07929   1.46932  -1.23095
O    -1.19440   1.21018  -2.43356
C    -0.62816   0.38731  -0.22780
C    -1.81919  -0.56494   0.03105
C    -2.80390  -0.80591  -0.93879
C    -3.84205  -1.70876  -0.69312
C    -3.91787  -2.38830   0.52457
C    -2.94079  -2.15716   1.49618
C    -1.90397  -1.25390   1.25275
N    -0.32296   1.01542   1.06376
C     0.78438   0.58014   1.51554
C     1.29105   0.99264   2.79716
N     1.72824   1.29576   3.82908
C     1.59431  -0.34101   0.61688
C     1.81638  -1.62812   1.26120
N     1.99325  -2.65237   1.77797
C     2.91089   0.37940   0.16947
C     3.66399  -0.54202  -0.81139
C     2.83083  -0.41019  -2.11782
C     1.61589   0.43720  -1.68200
C     2.32569   1.45103  -0.76567
C     0.70031  -0.38169  -0.70385
C     0.38881  -1.78361  -1.21896
H    -1.94025   4.65979  -0.92680
H    -2.84846   3.52353  -1.96717
H    -1.16836   3.95142  -2.37625
H    -1.26569   2.79348   0.28683
H    -2.75526  -0.29862  -1.90038
H    -4.59572  -1.87969  -1.46542
H    -4.73058  -3.09300   0.71503
H    -2.98111  -2.68200   2.45344
H    -1.15234  -1.10668   2.02791
H     3.50274   0.72383   1.02733
H     3.72439  -1.57618  -0.44184
H     4.69380  -0.18221  -0.94467
H     2.56687  -1.37416  -2.56741
H     3.38878   0.15687  -2.87703
H     1.05547   0.84894  -2.52431
H     1.66593   2.17429  -0.27056
H     3.11292   2.00879  -1.29210
H    -0.18156  -1.71098  -2.15664
H    -0.20720  -2.36036  -0.50295
H     1.30455  -2.35371  -1.41414
