21
Generated by autodE on: 2022-05-31. E = -404.490443 Ha
C     2.07933  -1.28074  -0.01037
C     0.76414  -0.65268   0.26562
C     0.36921   0.63605   0.08359
C     1.15369   1.68727  -0.44560
N     1.78782   2.57016  -0.87121
C    -1.13492   0.71136   0.35155
C    -1.81610  -0.03649  -0.83552
C    -1.35328  -1.50661  -0.62395
C    -0.47878  -1.42030   0.67317
C    -1.24906  -0.34581   1.46826
H     2.82650  -0.55142  -0.35506
H     2.46179  -1.78718   0.89206
H     1.96762  -2.06306  -0.78139
H    -1.52738   1.71494   0.55417
H    -1.50682   0.37745  -1.80560
H    -2.91003   0.05454  -0.76182
H    -2.20707  -2.17737  -0.44832
H    -0.78078  -1.90630  -1.47318
H    -0.29006  -2.38594   1.15868
H    -2.28892  -0.63259   1.68715
H    -0.73969  -0.04873   2.39672
