24
Generated by autodE on: 2022-05-31. E = -664.304355 Ha
C    -2.93882  -2.51585   0.91852
N    -1.70389  -1.79256   0.68242
C    -1.71254  -0.50570   0.29471
O    -2.74851   0.14409   0.12862
C    -0.36249   0.14723   0.11327
N    -0.40130   1.42747   0.10401
C    -0.50409   2.63409   0.25171
C    -0.70312   3.66174  -0.67188
N    -0.86164   4.62593  -1.31476
C     0.93702  -0.55025  -0.00125
C     2.08372   0.01620   0.58649
C     3.31963  -0.61874   0.47411
C     3.43084  -1.82368  -0.22886
C     2.29852  -2.38651  -0.82470
C     1.05752  -1.75609  -0.71697
H    -3.48312  -2.11124   1.78746
H    -3.60128  -2.45018   0.04239
H    -2.70025  -3.56920   1.10802
H    -0.82044  -2.25563   0.86590
H     1.99952   0.95428   1.13936
H     4.20063  -0.17278   0.94106
H     4.39973  -2.32055  -0.31519
H     2.38024  -3.31960  -1.38649
H     0.18657  -2.19197  -1.20777
