45
Generated by autodE on: 2022-05-31. E = -1068.791695 Ha. Imaginary frequency = -319.1 cm-1
C    -0.81918   3.78953  -1.81147
N    -1.01298   2.79381  -0.77536
C    -1.27237   1.50617  -1.08113
O    -1.52921   1.14083  -2.23560
C    -1.20670   0.53046   0.05432
C    -2.10608  -0.62592   0.17044
C    -3.06871  -0.92923  -0.81374
C    -3.86807  -2.06688  -0.69432
C    -3.73108  -2.92122   0.40295
C    -2.78544  -2.62409   1.39174
C    -1.98493  -1.49051   1.28099
N    -0.57647   0.93416   1.15875
C     0.49724   0.80910   1.73096
C     1.05047   1.28541   2.92153
N     1.65532   1.59634   3.87118
C     1.73434  -0.45108   0.34972
C     1.84228  -1.54147   1.26265
N     1.93403  -2.42407   2.01857
C     2.90478   0.50793   0.09026
C     3.85055  -0.23301  -0.89955
C     3.01960  -0.26183  -2.21570
C     1.67851   0.43177  -1.80243
C     2.22149   1.51497  -0.85148
C     1.00625  -0.54797  -0.84734
C     0.29609  -1.76165  -1.34751
H     0.09714   3.59330  -2.39314
H    -0.73553   4.77696  -1.34154
H    -1.67139   3.79737  -2.50634
H    -0.77667   3.03769   0.18075
H    -3.17869  -0.27754  -1.67726
H    -4.60620  -2.28498  -1.46958
H    -4.35843  -3.81108   0.49074
H    -2.67047  -3.28154   2.25644
H    -1.25144  -1.28188   2.06084
H     3.38687   0.90156   0.99364
H     4.11212  -1.23678  -0.53399
H     4.78542   0.33326  -1.02281
H     2.86031  -1.27740  -2.60316
H     3.50411   0.32724  -3.00845
H     1.05598   0.75566  -2.64466
H     1.44684   2.11844  -0.36595
H     2.94233   2.18539  -1.34134
H    -0.52540  -1.49347  -2.02739
H    -0.10696  -2.37581  -0.53197
H     1.00188  -2.39008  -1.92021
