57
Generated by autodE on: 2022-10-22. E = -1432.696172 Ha
C    11.16049  12.14881  -7.94373
O    10.03012  11.50138  -7.33881
C     8.87654  12.14841  -7.39400
O     8.75586  13.27969  -7.82042
C     7.65725  11.39199  -6.81942
C     7.90245   9.95075  -6.33460
O     7.15206   9.02324  -6.56072
O     8.93247   9.86342  -5.49817
C     9.12757   8.60173  -4.83920
C     6.53282  11.44949  -7.86320
C     5.49627  12.14339  -7.36231
C     5.78685  12.61368  -5.94583
C     4.72663  12.11872  -4.93658
C     4.89571  10.73263  -4.39049
O     3.79499  12.84343  -4.63315
N     7.09680  12.08332  -5.66275
C     7.94924  12.84232  -4.77233
C     4.11649  12.48714  -7.95364
C     3.69904  13.83098  -7.49069
N     3.37638  14.91281  -7.23121
C     3.15830  11.48935  -7.42706
N     2.43867  10.66201  -7.05126
C     3.94608  12.50453  -9.51006
C     4.80102  13.52060 -10.25355
C     6.31184  13.31077 -10.15226
C     6.78177  11.87422 -10.40772
C     6.79500  10.82733  -9.23225
C     5.87388   9.62138  -9.47869
O     8.15261  10.35442  -9.09123
C     8.70057   9.53018 -10.09691
H    12.00775  11.46914  -7.79947
H    11.35712  13.11511  -7.45859
H    10.97280  12.30420  -9.01603
H     9.28837   7.80474  -5.57866
H     8.25338   8.35682  -4.21891
H    10.01773   8.72522  -4.21217
H     5.76057  13.71963  -5.90469
H     5.18758  10.03280  -5.18678
H     5.71460  10.73421  -3.65283
H     3.96622  10.40902  -3.90465
H     8.86004  12.26957  -4.55077
H     8.24302  13.82588  -5.18785
H     7.42285  13.01413  -3.82090
H     2.88130  12.70995  -9.69304
H     4.13167  11.49237  -9.88101
H     4.54231  14.54143  -9.92927
H     4.49956  13.44837 -11.31164
H     6.69462  13.66893  -9.18702
H     6.78561  13.95251 -10.91213
H     6.21552  11.45116 -11.25243
H     7.82747  11.93531 -10.73663
H     6.11322   8.82739  -8.76112
H     4.81630   9.87566  -9.34555
H     6.00415   9.24209 -10.50221
H     9.77550   9.45198  -9.87735
H     8.26619   8.51631 -10.08854
H     8.58344   9.95941 -11.10658
