29
Generated by autodE on: 2022-10-22. E = -650.599460 Ha
C    -0.30002   3.40619  -1.83332
O    -1.26175   2.39953  -1.57262
C    -0.79406   1.05600  -1.64625
C    -0.26035   0.71085  -3.04079
C     0.21550   0.75934  -0.61125
C     0.81488   0.16223   0.25572
C     0.98307  -0.87061   1.28575
C     2.37586  -1.35081   1.39451
N     3.46039  -1.75386   1.45437
C     0.56331  -0.34130   2.60228
N     0.19591   0.06045   3.62503
C     0.04447  -2.07401   0.87586
C    -1.40460  -1.67959   0.54057
C    -1.74852  -1.30291  -0.92801
C    -2.01573   0.17704  -1.26331
H    -0.00816   3.44535  -2.89669
H     0.61133   3.26398  -1.22317
H    -0.75864   4.36715  -1.56016
H    -0.05334  -0.36591  -3.11545
H     0.66972   1.25075  -3.26559
H    -1.02151   0.97936  -3.78894
H     0.06783  -2.78523   1.71425
H     0.52501  -2.55798   0.01327
H    -2.00469  -2.56511   0.79816
H    -1.74740  -0.88821   1.22827
H    -2.67449  -1.84031  -1.18204
H    -0.98234  -1.71343  -1.60637
H    -2.71588   0.24182  -2.11134
H    -2.50228   0.66949  -0.40659
