57
Generated by autodE on: 2022-10-22. E = -1432.595138 Ha. Imaginary frequency = -242.2 cm-1
C    11.27989  10.03870  -7.38589
O     9.91548  10.16904  -6.97059
C     9.51950  11.37557  -6.54157
O    10.26471  12.33496  -6.51364
C     8.10048  11.30096  -6.08076
C     7.78214   9.88513  -5.61224
O     7.11925   9.06292  -6.20143
O     8.52288   9.61139  -4.53230
C     8.42108   8.27868  -4.01402
C     6.56052  11.33606  -7.99095
C     5.51201  11.70470  -7.44343
C     6.16800  12.44135  -5.23305
C     5.46904  11.47458  -4.39159
C     4.14278  11.94461  -3.84071
O     5.93027  10.38397  -4.05586
N     7.46764  12.41095  -5.62465
C     7.98369  13.73203  -6.06409
C     4.08705  12.08684  -7.65526
C     3.85635  13.47439  -7.20102
N     3.69899  14.57894  -6.88812
C     3.20998  11.17236  -6.89186
N     2.53266  10.40757  -6.34539
C     3.68557  11.95750  -9.16922
C     4.34102  12.94964 -10.13239
C     5.87394  12.95536 -10.26342
C     6.52247  11.57030 -10.42903
C     7.36793  11.09569  -9.21588
C     7.73380   9.61771  -9.38124
O     8.52542  11.93875  -9.06500
C     9.54498  11.84737 -10.04090
H    11.38251   9.01289  -7.75746
H    11.95389  10.20327  -6.53247
H    11.51491  10.75691  -8.18210
H     7.38410   8.06630  -3.71750
H     8.74575   7.54783  -4.76902
H     9.08229   8.24154  -3.14057
H     5.74981  13.44397  -5.19906
H     4.33767  12.39554  -2.85172
H     3.65823  12.70792  -4.46313
H     3.47543  11.08474  -3.69973
H     7.21293  14.48121  -5.86776
H     8.20611  13.69855  -7.13675
H     8.89281  13.98086  -5.51037
H     3.91219  10.91795  -9.44459
H     2.59346  12.08029  -9.22423
H     4.00110  13.96941  -9.88713
H     3.90598  12.71769 -11.11907
H     6.32260  13.47344  -9.40218
H     6.11699  13.58052 -11.13671
H     5.75956  10.80157 -10.62257
H     7.18613  11.55307 -11.30644
H     6.82531   9.00478  -9.30298
H     8.17650   9.44087 -10.37219
H     8.44046   9.29949  -8.60699
H     9.19016  12.12274 -11.04941
H     9.99543  10.84251 -10.08708
H    10.32219  12.56409  -9.74035
