45
Generated by autodE on: 2022-05-30. E = -1068.882638 Ha
C     3.31204   2.86958  -0.25544
N     2.52475   1.65156  -0.25315
C     1.27513   1.58568   0.21683
O     0.67488   2.53614   0.71781
C     0.55877   0.18215   0.14347
C     1.45524  -0.87544  -0.47746
C     2.15230  -1.79455   0.31883
C     3.00154  -2.73742  -0.26588
C     3.17177  -2.76915  -1.65255
C     2.49231  -1.84511  -2.45181
C     1.64262  -0.90271  -1.86891
N     0.24952  -0.08818   1.55008
C    -0.97040   0.21082   1.78520
C    -1.48876   0.14498   3.12900
N    -1.94415   0.11233   4.19659
C    -1.87562   0.58180   0.62882
C    -2.47402   1.98105   0.77332
C    -2.99702  -0.47775   0.34779
C    -2.51848  -1.89962   0.68727
C    -1.42827  -2.15893  -0.38903
C    -1.48349  -0.89913  -1.28194
C    -2.97595  -0.52586  -1.18974
C    -0.85078   0.35062  -0.56977
C    -0.83673   1.44714  -1.53090
N    -0.82675   2.28374  -2.33597
H     4.20699   2.75621   0.37572
H     2.70086   3.69059   0.13607
H     3.63455   3.11645  -1.27814
H     2.94049   0.81088  -0.64187
H     2.02117  -1.77391   1.39998
H     3.53234  -3.45101   0.36853
H     3.83458  -3.50780  -2.10902
H     2.62386  -1.85412  -3.53608
H     1.13368  -0.17795  -2.50646
H    -1.69069   2.74545   0.82781
H    -3.08323   2.02778   1.68889
H    -3.13036   2.20094  -0.08061
H    -3.94653  -0.19269   0.81788
H    -3.35944  -2.59975   0.57985
H    -2.14399  -2.00840   1.71437
H    -0.43924  -2.34295   0.04242
H    -1.67432  -3.03470  -1.00602
H    -1.08170  -1.05054  -2.28916
H    -3.22675   0.42888  -1.67318
H    -3.62872  -1.31194  -1.59636
