24
Generated by autodE on: 2022-05-30. E = -664.304378 Ha
C     3.10632  -2.20815  -1.13581
N     1.82902  -1.56672  -0.88847
C     1.74992  -0.42211  -0.18849
O     2.73672   0.15716   0.27352
C     0.36991   0.17092  -0.03016
N     0.36960   1.41172   0.28744
C     0.45062   2.61894   0.44439
C     0.49950   3.39523   1.60360
N     0.54471   4.17730   2.47218
C    -0.91199  -0.53473  -0.24608
C    -1.08003  -1.87534   0.14809
C    -2.30493  -2.51560  -0.04855
C    -3.37426  -1.83050  -0.63266
C    -3.21669  -0.49393  -1.01643
C    -1.99654   0.15205  -0.82342
H     2.92827  -3.16706  -1.63698
H     3.75215  -1.58516  -1.77584
H     3.64007  -2.39117  -0.19098
H     0.99210  -1.96356  -1.30214
H    -0.26092  -2.41271   0.62732
H    -2.42476  -3.55477   0.26569
H    -4.33066  -2.33550  -0.78563
H    -4.04856   0.04731  -1.47262
H    -1.87580   1.19399  -1.12786
