45
Generated by autodE on: 2022-05-30. E = -1068.786960 Ha. Imaginary frequency = -297.8 cm-1
C     3.02981   3.30612  -0.70523
N     2.61744   1.94523  -0.41944
C     1.55278   1.69582   0.35821
O     0.93098   2.58176   0.95216
C     1.14170   0.24831   0.49636
C     1.77038  -0.89323  -0.19023
C     2.06360  -2.06952   0.52468
C     2.57983  -3.18342  -0.13621
C     2.80934  -3.14046  -1.51525
C     2.51793  -1.97484  -2.23174
C     2.00128  -0.85594  -1.57921
N     0.33588   0.02999   1.49707
C    -0.81151   0.08828   1.92313
C    -1.32724  -0.03673   3.22343
N    -1.90720  -0.11508   4.23279
C    -2.16510   0.62819   0.30231
C    -2.57736   1.93902   0.91532
C    -3.14831  -0.55825   0.23440
C    -2.42009  -1.91159   0.44104
C    -1.49691  -2.01334  -0.80497
C    -1.86620  -0.74004  -1.61087
C    -3.38071  -0.62407  -1.29966
C    -1.39054   0.51747  -0.86482
C    -0.74697   1.57182  -1.53592
N    -0.23345   2.42816  -2.14865
H     3.30040   3.84024   0.21888
H     2.21800   3.86141  -1.19955
H     3.90157   3.27816  -1.36962
H     3.10621   1.17842  -0.86806
H     1.88688  -2.10269   1.60122
H     2.80648  -4.08982   0.42958
H     3.21255  -4.01447  -2.03142
H     2.68034  -1.93942  -3.31117
H     1.73077   0.02986  -2.15520
H    -1.74905   2.66075   0.91567
H    -2.94459   1.81784   1.94493
H    -3.40446   2.36419   0.31983
H    -4.03210  -0.42066   0.87057
H    -3.16724  -2.71891   0.45051
H    -1.87327  -1.97322   1.39112
H    -0.43284  -2.04916  -0.54975
H    -1.72466  -2.91048  -1.39966
H    -1.56752  -0.76742  -2.66574
H    -3.83402   0.29010  -1.70987
H    -3.96936  -1.50258  -1.61120
