45
Generated by autodE on: 2022-06-22. E = -1291.731516 Ha
C    -2.14729  -0.40382  -3.33602
N    -1.64286   0.04308  -2.05124
C    -1.61482  -0.75950  -0.98645
O    -2.06087  -1.90978  -0.96350
C    -0.98300  -0.18261   0.28679
C    -1.90681  -0.53841   1.46494
O    -1.60484  -1.26853   2.38233
O    -3.07699   0.07069   1.33520
C    -4.02410  -0.10726   2.40233
O    -0.89031   1.25303   0.18944
N     0.33471   1.64362   0.77052
C     0.18129   1.94606   2.13016
O    -0.89181   2.08333   2.68012
O     1.37049   2.11828   2.70136
C     1.36215   2.46853   4.09542
C     1.30537   0.63369   0.33509
C     1.76572   0.90264  -1.10026
C     2.13459  -0.36514  -1.82558
C     2.91001  -0.35054  -3.07381
N     3.26941   0.86816  -3.55266
O     3.23664  -1.38706  -3.68783
C     1.70449  -1.57663  -1.36894
N     0.94021  -1.77873  -0.26849
C     0.65320  -3.11286   0.23426
C     0.49088  -0.66637   0.52614
H    -1.45071  -1.10981  -3.81724
H    -3.11577  -0.90872  -3.21045
H    -2.27795   0.46712  -3.98897
H    -1.23213   0.96735  -1.95752
H    -4.91860   0.45221   2.10712
H    -3.61091   0.29650   3.33767
H    -4.26144  -1.17280   2.52882
H     0.84565   3.42701   4.24508
H     0.86598   1.68327   4.68294
H     2.41495   2.55413   4.38653
H     2.15477   0.63904   1.02411
H     2.62035   1.59514  -1.04981
H     0.96651   1.43921  -1.63913
H     2.98518   1.73582  -3.11671
H     3.78305   0.91078  -4.42583
H     1.98723  -2.48105  -1.91096
H    -0.41015  -3.20088   0.49394
H     1.25343  -3.33797   1.13316
H     0.88707  -3.85292  -0.54181
H     0.55412  -0.95773   1.58302
