25
Generated by autodE on: 2022-06-22. E = -833.903600 Ha
C    -3.14237   3.07577  -1.02778
N    -1.94159   2.26705  -0.93463
C    -1.93077   1.12526  -0.23965
O    -2.87986   0.66876   0.39974
C    -0.64516   0.34313  -0.27394
O     0.15175   0.61124  -1.22342
N     1.34604   0.04084  -1.63419
C     2.18280  -0.37593  -0.63227
O     3.18472  -1.02744  -0.89147
O     1.88459   0.06984   0.60140
C     2.73895  -0.33823   1.67737
C    -0.46802  -0.75257   0.75074
O    -0.66468  -0.56968   1.92701
O    -0.14111  -1.88877   0.16543
C     0.09671  -3.02396   1.02528
H    -3.92939   2.55506  -1.59664
H    -2.89693   4.01661  -1.53316
H    -3.53515   3.29529  -0.02376
H    -1.11305   2.53692  -1.45757
H     2.23083  -0.02696   2.59733
H     2.87534  -1.42834   1.66824
H     3.71663   0.15802   1.59470
H    -0.81952  -3.27234   1.57804
H     0.90950  -2.79188   1.72655
H     0.38200  -3.84443   0.35898
