25
Generated by autodE on: 2022-07-27. E = -833.908731 Ha
C    -1.75373  -1.70844  -3.78614
N    -0.98396  -0.99392  -2.78527
C    -1.04766  -1.32416  -1.49198
O    -1.75695  -2.20798  -1.00766
C    -0.15982  -0.53770  -0.56685
O     0.88496  -0.03689  -1.09064
N     1.90319   0.67924  -0.49910
C     1.44171   1.50882   0.48240
O     0.27176   1.70367   0.81430
O     2.48136   2.16692   1.01580
C     2.16982   3.13136   2.02854
C    -0.37357  -0.66622   0.91865
O     0.51575  -1.08182   1.62717
O    -1.60584  -0.38228   1.27394
C    -1.91044  -0.47819   2.68074
H    -1.33189  -2.70881  -3.97613
H    -2.79177  -1.83302  -3.44579
H    -1.74460  -1.13304  -4.71897
H    -0.33228  -0.27060  -3.07832
H     1.63208   2.65810   2.86321
H     3.13317   3.52376   2.37494
H     1.55864   3.94724   1.61536
H    -1.75710  -1.50858   3.02954
H    -1.26711   0.21112   3.24524
H    -2.96265  -0.19085   2.77656
