45
Generated by autodE on: 2022-06-22. E = -1291.628733 Ha. Imaginary frequency = -137.2 cm-1
C    -3.04611  -1.63265  -2.84122
N    -2.38895  -0.77403  -1.87707
C    -2.29463  -1.10422  -0.58121
O    -2.79853  -2.11448  -0.07067
C    -1.48904  -0.19265   0.27908
C    -1.72102  -0.32653   1.77405
O    -0.91562  -0.71687   2.58747
O    -2.98984  -0.04074   2.03654
C    -3.39560  -0.12411   3.41497
O    -0.91765   0.79867  -0.34085
N     0.14555   1.52821   0.10439
C    -0.03694   2.06835   1.34530
O    -1.07790   2.12592   1.99387
O     1.12386   2.61340   1.75466
C     1.10261   3.25895   3.03229
C     1.51019  -0.58057   0.73864
C     2.71356  -0.00140   0.04856
C     2.60442  -0.19576  -1.44910
C     3.42940   0.56714  -2.40868
N     4.31225   1.44342  -1.87501
O     3.33926   0.41886  -3.64144
C     1.76907  -1.13961  -1.95328
N     0.92975  -1.90154  -1.17668
C     0.22567  -3.03703  -1.76015
C     0.75101  -1.56001   0.15335
H    -2.39902  -2.47464  -3.14000
H    -3.96880  -2.04520  -2.41061
H    -3.29549  -1.04499  -3.73326
H    -1.88748   0.04738  -2.20238
H    -3.24524  -1.14470   3.79394
H    -2.81334   0.58787   4.01688
H    -4.45894   0.13879   3.43023
H     0.81220   2.55017   3.82165
H     2.12461   3.61613   3.20565
H     0.40326   4.10801   3.02922
H     1.35111  -0.37525   1.79524
H     3.62840  -0.49463   0.44212
H     2.81505   1.06009   0.31737
H     4.40772   1.58650  -0.87759
H     4.89466   1.98841  -2.50182
H     1.72757  -1.33407  -3.02606
H     0.88253  -3.92036  -1.82418
H    -0.12012  -2.78610  -2.77222
H    -0.64319  -3.29126  -1.14242
H     0.06824  -2.18624   0.72439
