20
Generated by autodE on: 2022-05-25. E = -850.575622 Ha
C    -1.05734  -2.42067   1.03745
C    -0.89354  -1.15740   0.29667
C     0.12626  -0.44721  -0.20584
C     1.59098  -0.71069  -0.17621
F     2.22411   0.17581   0.61893
F     1.88536  -1.93805   0.27374
F     2.13972  -0.59136  -1.40077
C    -0.50487   0.86229  -0.68333
C     0.15511   1.74046  -1.69975
O    -1.81640   0.38299  -1.06486
N    -2.12132  -0.34213   0.08057
O    -1.94011   0.77438   1.14582
C    -0.93894   1.53797   0.64718
O    -0.51341   2.52995   1.17401
H    -1.49219  -2.19833   2.02719
H    -0.10149  -2.93819   1.16927
H    -1.76936  -3.07653   0.51114
H     1.08517   2.14261  -1.27319
H     0.39307   1.16992  -2.60676
H    -0.50758   2.58017  -1.95072
