10
Generated by autodE on: 2022-05-25. E = -453.905082 Ha
C    -3.33899  -0.11322   0.06627
C    -1.88915  -0.06437   0.03883
C    -0.67865  -0.02468   0.01498
C     0.77646   0.02610  -0.01546
F     1.29317  -0.87135  -0.87670
F     1.22916   1.23735  -0.39279
F     1.31402  -0.23454   1.19168
H    -3.68705  -0.89252   0.76284
H    -3.75262   0.85419   0.39294
H    -3.73703  -0.34023  -0.93561
