60
Generated by autodE on: 2022-06-24. E = -1273.198790 Ha
C    -1.49251   2.14902  -3.23139
C    -0.15566   2.00371  -2.57226
O     0.88612   2.32196  -3.11612
C    -0.11784   1.43417  -1.14206
C     0.42054   2.56560  -0.22612
C    -0.48763   3.07689   0.85135
O     1.53422   3.01762  -0.41019
O    -1.41866   1.04070  -0.73773
C    -1.40844  -0.18090   0.03903
C    -2.12042   0.06777   1.36917
C    -3.21986   0.93703   1.42034
C    -3.90735   1.14173   2.61800
C    -3.51374   0.46921   3.78038
C    -2.42801  -0.40885   3.73274
C    -1.73535  -0.60867   2.53386
C    -2.21981  -1.25451  -0.69739
C    -3.17914  -0.89119  -1.65222
C    -3.95414  -1.86501  -2.28868
C    -3.78752  -3.21660  -1.97332
C    -2.84505  -3.58430  -1.00802
C    -2.07144  -2.61005  -0.37150
C     0.08642  -0.50947   0.18822
C     0.75094   0.11182  -1.04700
C     0.52636  -0.75725  -2.30499
C     2.23052   0.33964  -0.91410
C     3.02244  -0.13277   0.06759
C     4.46315   0.06489   0.09074
C     5.33254  -0.37521   1.03161
C     4.93962  -1.16972   2.24576
C     6.80341  -0.08541   0.91787
H    -1.37296   2.67522  -4.18705
H    -2.19239   2.68539  -2.57353
H    -1.92231   1.15053  -3.40671
H    -0.67304   2.28403   1.59228
H    -0.01734   3.93994   1.33964
H    -1.46769   3.35066   0.43444
H    -3.53074   1.46398   0.51734
H    -4.75572   1.82997   2.64415
H    -4.05177   0.62908   4.71774
H    -2.11275  -0.94126   4.63334
H    -0.89014  -1.29876   2.51358
H    -3.31413   0.15979  -1.90404
H    -4.69182  -1.56325  -3.03628
H    -4.39039  -3.97835  -2.47322
H    -2.70871  -4.63665  -0.74730
H    -1.34883  -2.91469   0.38770
H     0.47190  -0.02063   1.09277
H     0.28660  -1.58287   0.27195
H     0.89416  -1.77485  -2.10958
H    -0.53422  -0.82491  -2.58049
H     1.08030  -0.35442  -3.16403
H     2.68587   0.89047  -1.74271
H     2.57545  -0.69534   0.89143
H     4.87302   0.63601  -0.75107
H     5.47422  -2.13599   2.26032
H     3.86315  -1.37431   2.31017
H     5.24345  -0.63877   3.16530
H     7.38734  -1.02310   0.89333
H     7.04376   0.49716   0.01629
H     7.16222   0.47409   1.80050
