23
Generated by autodE on: 2022-06-24. E = -351.521382 Ha
C     3.47264  -1.48334  -0.20265
C     2.52984  -0.53640  -0.00178
C     2.90287   0.86709   0.40236
C     1.11628  -0.86533  -0.17469
C     0.07817  -0.00911  -0.00116
C    -1.30805  -0.38735  -0.18590
C    -2.39904   0.40404  -0.02747
C    -3.78146  -0.13745  -0.25872
C    -2.34807   1.84874   0.38175
H     3.19865  -2.50157  -0.49565
H     4.53703  -1.26453  -0.07983
H     2.44354   1.13783   1.36765
H     3.99238   0.97863   0.49513
H     2.54068   1.60266  -0.33499
H     0.89766  -1.89860  -0.47016
H     0.28837   1.02245   0.29395
H    -1.47855  -1.42836  -0.48621
H    -4.30193   0.44033  -1.04366
H    -4.39851  -0.03768   0.65242
H    -3.76911  -1.19620  -0.55641
H    -2.92429   2.00236   1.31131
H    -2.83115   2.48027  -0.38468
H    -1.33058   2.22662   0.54451
