37
Generated by autodE on: 2022-06-24. E = -921.615148 Ha
C     1.28157  -1.70490   1.66900
C     2.16449  -1.36311   0.47928
O     3.05857  -2.17352   0.16206
C     1.99256  -0.11623  -0.20030
O     0.91670   0.73219   0.16285
C    -0.33676   0.40676   0.16702
C    -1.19503   1.34086   0.86860
C    -0.63445   2.20738   1.83625
C    -1.44054   3.12553   2.49776
C    -2.80808   3.20000   2.20015
C    -3.37095   2.35321   1.23823
C    -2.57538   1.42428   0.57502
C    -0.84585  -0.78536  -0.50852
C    -0.36837  -1.13475  -1.78982
C    -0.90203  -2.23648  -2.44829
C    -1.88507  -3.02131  -1.82912
C    -2.35272  -2.68799  -0.55547
C    -1.84612  -1.56721   0.10145
C     2.87575   0.48386  -1.15508
C     2.48888   1.86147  -1.66627
O     3.90730  -0.06701  -1.58335
H     0.51750  -2.43826   1.36574
H     0.77504  -0.84860   2.13419
H     1.92323  -2.18999   2.41923
H     0.42643   2.12914   2.07485
H    -1.00839   3.78317   3.25439
H    -3.43846   3.92362   2.72190
H    -4.43390   2.42404   1.00024
H    -3.01093   0.78732  -0.19434
H     0.39474  -0.52641  -2.27425
H    -0.54936  -2.49018  -3.44983
H    -2.28664  -3.89601  -2.34557
H    -3.11489  -3.30115  -0.07085
H    -2.19926  -1.31297   1.10125
H     1.54290   1.81401  -2.23107
H     3.28539   2.23111  -2.32563
H     2.33222   2.57115  -0.83878
