60
Generated by autodE on: 2022-06-24. E = -1273.123707 Ha. Imaginary frequency = -331.2 cm-1
C     0.20256  -3.48455   2.31748
C     1.57125  -3.28327   1.70013
O     2.43639  -2.66590   2.35237
C     1.81942  -3.77673   0.36817
C     3.12454  -3.85805  -0.24916
C     4.35423  -3.54366   0.57654
O     3.28548  -4.17025  -1.44073
O     0.66432  -4.18896  -0.25761
C     0.29035  -4.22121  -1.53534
C     1.00060  -5.15824  -2.46155
C     1.43845  -6.37991  -1.92139
C     2.00753  -7.35402  -2.74126
C     2.14832  -7.12456  -4.11353
C     1.70692  -5.91473  -4.65806
C     1.13021  -4.94043  -3.84094
C    -1.19825  -4.15482  -1.66497
C    -1.97808  -3.68816  -0.58934
C    -3.36478  -3.59888  -0.69634
C    -4.00659  -3.96373  -1.88443
C    -3.24476  -4.43140  -2.95872
C    -1.85734  -4.53439  -2.84990
C     0.90177  -2.22824  -2.27538
C     1.11490  -1.37906  -1.18778
C    -0.06200  -0.81509  -0.44466
C     2.44515  -0.96016  -0.83610
C     2.75506  -0.17335   0.23619
C     4.09421   0.22252   0.58270
C     4.44541   0.78148   1.77238
C     3.44108   1.02435   2.87010
C     5.87099   1.12548   2.07732
H     0.30494  -3.40116   3.40786
H    -0.25363  -4.44681   2.05306
H    -0.47811  -2.68388   1.98489
H     5.22884  -3.86943  -0.00400
H     4.42874  -2.46348   0.76466
H     4.34096  -4.03628   1.55806
H     1.33190  -6.56168  -0.85068
H     2.34579  -8.29646  -2.30407
H     2.59934  -7.88462  -4.75557
H     1.81244  -5.72445  -5.72859
H     0.79415  -4.00325  -4.28410
H    -1.49124  -3.39495   0.33550
H    -3.94741  -3.23795   0.15429
H    -5.09302  -3.88872  -1.97023
H    -3.73299  -4.72943  -3.88931
H    -1.29133  -4.92103  -3.69515
H    -0.05554  -2.17566  -2.79423
H     1.76562  -2.51722  -2.87313
H    -0.09582   0.27961  -0.57478
H     0.01073  -0.99945   0.63719
H    -1.00671  -1.23305  -0.81086
H     3.25598  -1.32187  -1.47495
H     1.94807   0.15245   0.89656
H     4.88136   0.00961  -0.14893
H     3.04032   0.06613   3.24474
H     2.57770   1.61235   2.51905
H     3.89415   1.55822   3.71739
H     6.21682   0.58044   2.97431
H     6.54578   0.89074   1.24138
H     5.96797   2.19911   2.32007
