38
Generated by autodE on: 2022-06-01. E = -3512.469411 Ha
C    -6.14296   0.28545  -1.09197
O    -5.07349  -0.16602  -0.24663
C    -3.83596  -0.06382  -0.73504
O    -3.58235   0.41381  -1.82205
C    -2.80890  -0.66006   0.21524
N    -2.77870  -2.11579  -0.02223
C    -1.59883  -2.46180  -0.38315
C    -1.22387  -3.86534  -0.71808
C    -0.57099  -1.35766  -0.43159
C     0.46642  -1.43903   0.73870
O    -0.32408  -0.99769   1.84972
C    -0.65880   0.28470   1.30616
C     0.72018   0.79547   0.90836
Br    1.05658   2.63569   0.73126
C     1.45204  -0.27799   0.53778
C     2.76699  -0.43687  -0.07810
C     3.77326   0.54510   0.03210
C     5.01626   0.36123  -0.57249
C     5.28365  -0.80160  -1.30357
C     4.29755  -1.78621  -1.41658
C     3.05526  -1.61110  -0.80556
C    -1.38946  -0.10624  -0.01116
H    -7.06702   0.11929  -0.52642
H    -6.16110  -0.29095  -2.02830
H    -6.02511   1.35400  -1.32286
H    -3.16912  -0.47922   1.23882
H    -2.08574  -4.54076  -0.63757
H    -0.81779  -3.91019  -1.74233
H    -0.42372  -4.21646  -0.04535
H    -0.07033  -1.30327  -1.40757
H     0.90130  -2.42553   0.93047
H    -1.23305   0.89138   2.01531
H     3.58782   1.45066   0.60896
H     5.78433   1.13128  -0.46855
H     6.25767  -0.94122  -1.77810
H     4.49664  -2.69963  -1.98187
H     2.29757  -2.39006  -0.90625
H    -1.37724   0.70517  -0.74638
