23
Generated by autodE on: 2022-06-01. E = -3112.268676 Ha
Br    0.59115   1.85823   1.16493
C     0.88341   0.08643   0.62319
C     0.10331  -0.77438  -0.06058
C    -1.24790  -0.70263  -0.60288
C    -2.22715   0.16112  -0.06788
C    -3.50630   0.21548  -0.61945
C    -3.83913  -0.58580  -1.71774
C    -2.88111  -1.45103  -2.25477
C    -1.60190  -1.51572  -1.70069
C     1.08618  -1.95432  -0.34699
C     2.11895  -1.45037  -1.37823
C     2.87158  -0.57370  -0.70715
C     2.28099  -0.56651   0.72286
O     1.88020  -1.93740   0.85285
H    -1.98835   0.78197   0.79532
H    -4.25147   0.88669  -0.18586
H    -4.84202  -0.53933  -2.14838
H    -3.13121  -2.08291  -3.11022
H    -0.86613  -2.19547  -2.13475
H     0.62650  -2.93245  -0.52036
H     2.14338  -1.73348  -2.42984
H     3.68483   0.06326  -1.05289
H     2.92499  -0.23272   1.54343
