15
Generated by autodE on: 2022-06-01. E = -400.074753 Ha
C    -3.33158   1.17975   0.50810
C    -2.22768   0.29780   0.20717
N    -1.33558  -0.41097  -0.03264
C    -0.27689  -1.19143  -0.30047
C     1.04455  -0.67575  -0.23972
O     2.07516  -1.31703  -0.46790
O     1.09321   0.65070   0.10723
C     2.39066   1.23370   0.18693
H    -3.91228   1.42001  -0.39664
H    -3.99032   0.72631   1.26579
H    -2.91666   2.11270   0.92337
H    -0.46525  -2.23065  -0.56409
H     3.00954   0.73382   0.94857
H     2.23850   2.28367   0.46873
H     2.91353   1.18407  -0.78108
