38
Generated by autodE on: 2022-06-01. E = -3512.346067 Ha. Imaginary frequency = -281.6 cm-1
C    -5.49783   1.11685  -1.08622
O    -4.82085   0.35115  -0.08906
C    -4.15248  -0.74770  -0.52683
O    -4.15514  -1.09447  -1.70510
C    -3.44403  -1.39317   0.54907
N    -2.76240  -2.49335   0.26908
C    -1.83131  -3.04398  -0.23648
C    -1.27966  -4.30242  -0.72662
C    -0.49988  -1.14591  -0.72259
C     0.50102  -1.32300   0.44218
O    -0.32273  -0.94489   1.55843
C    -0.69522   0.33386   1.02640
C     0.71679   0.91061   0.77710
Br    1.02579   2.76269   0.76889
C     1.49620  -0.12224   0.39446
C     2.85659  -0.22738  -0.11817
C     3.83960   0.75141   0.14160
C     5.12760   0.62200  -0.37614
C     5.46681  -0.48238  -1.16646
C     4.50535  -1.46342  -1.42750
C     3.21711  -1.34248  -0.90490
C    -1.25283  -0.07143  -0.35161
H    -5.97610   1.95131  -0.55846
H    -6.26206   0.51307  -1.59887
H    -4.78959   1.50640  -1.83362
H    -3.58697  -1.10402   1.58959
H    -1.84652  -5.16868  -0.35078
H    -1.33405  -4.28586  -1.82767
H    -0.21901  -4.39049  -0.44901
H    -0.34365  -1.54131  -1.72554
H     0.94940  -2.31143   0.58666
H    -1.34631   0.89903   1.70138
H     3.59642   1.61106   0.76577
H     5.87503   1.38851  -0.15788
H     6.47674  -0.57955  -1.57145
H     4.75971  -2.33115  -2.04072
H     2.47798  -2.11596  -1.12130
H    -1.88495   0.56297  -0.96858
