49
Generated by autodE on: 2022-06-21. E = -1020.953195 Ha
C    -5.58645  -0.63595  -0.89259
C    -4.35110  -0.91630  -0.43048
C    -4.08908  -2.09553   0.46886
C    -3.22222  -0.05503  -0.79946
C    -1.94908  -0.22963  -0.40513
C    -0.82697   0.69334  -0.77208
C     0.40246  -0.04188  -1.41009
C     0.01417  -1.34344  -2.12173
C     1.11238   0.90220  -2.40218
C     1.27063  -0.24348  -0.15818
C     2.37203  -1.22658  -0.03786
C     3.14307  -1.64127  -1.13876
C     4.18212  -2.55996  -0.97223
C     4.46072  -3.08914   0.29073
C     3.69693  -2.68840   1.39297
C     2.66652  -1.76385   1.23070
N     0.96972   0.51288   0.83689
C    -0.17160   1.35272   0.49130
C     0.26675   2.81184   0.21812
C     1.47363   3.30814   0.95728
O    -0.37808   3.51505  -0.53496
C    -1.19653   1.45768   1.64886
C    -1.02756   0.53413   2.81539
O    -2.10034   2.26957   1.57355
H    -5.76506   0.22504  -1.54406
H    -6.44833  -1.25683  -0.63223
H    -3.65658  -1.77078   1.42997
H    -5.01321  -2.65374   0.67472
H    -3.35961  -2.78643   0.01436
H    -3.46013   0.79917  -1.44436
H    -1.69215  -1.07328   0.24252
H    -1.20819   1.47924  -1.43487
H    -0.35154  -2.10560  -1.41958
H     0.86701  -1.76841  -2.66842
H    -0.78537  -1.14323  -2.85097
H     1.42268   1.84511  -1.92945
H     0.42799   1.14514  -3.22947
H     2.00874   0.43409  -2.83217
H     2.95431  -1.23334  -2.13063
H     4.77707  -2.86205  -1.83711
H     5.26908  -3.81329   0.41655
H     3.90422  -3.10156   2.38290
H     2.06629  -1.45318   2.08674
H     1.59328   4.38717   0.79584
H     2.36775   2.77467   0.59902
H     1.38138   3.08492   2.03177
H    -0.10397   0.79781   3.35474
H    -1.89247   0.62248   3.48546
H    -0.90611  -0.50393   2.47192
