23
Generated by autodE on: 2022-06-21. E = -351.521383 Ha
C    -3.63812   0.12053   1.02492
C    -2.53644   0.40660   0.29669
C    -2.60158   1.33156  -0.89183
C    -1.24968  -0.18632   0.65576
C    -0.07625   0.01828   0.00612
C     1.17433  -0.59540   0.40368
C     2.38361  -0.44617  -0.19395
C     3.59721  -1.15369   0.33940
C     2.63270   0.40583  -1.40609
H    -4.61310   0.55011   0.77841
H    -3.58780  -0.55182   1.88697
H    -2.27651   0.81883  -1.81242
H    -1.93011   2.19627  -0.76014
H    -3.62248   1.70751  -1.04820
H    -1.25516  -0.85085   1.52820
H    -0.06343   0.67908  -0.86474
H     1.12268  -1.24827   1.28343
H     4.03639  -1.81257  -0.43125
H     3.36800  -1.76140   1.22705
H     4.38728  -0.42890   0.60636
H     3.39631   1.17214  -1.18406
H     3.04634  -0.20850  -2.22539
H     1.73579   0.91558  -1.78078
