26
Generated by autodE on: 2022-06-21. E = -669.377002 Ha
C     3.42456  -2.41098  -0.25328
C     2.04103  -1.81138  -0.23988
O     1.04854  -2.50963  -0.49345
C     1.89233  -0.39753   0.07587
N     0.60430   0.02577   0.05926
C    -0.53514   0.24629   0.00998
C    -1.92292   0.50680  -0.05294
C    -2.79311  -0.54428  -0.41436
C    -4.16124  -0.29618  -0.47656
C    -4.66233   0.97832  -0.18576
C    -3.79333   2.01632   0.17114
C    -2.42092   1.79312   0.24183
C     2.92048   0.57273   0.39225
C     2.46070   1.98818   0.67923
O     4.12402   0.28403   0.43229
H     3.91417  -2.29046   0.72439
H     4.06551  -1.90054  -0.98733
H     3.33947  -3.47705  -0.50401
H    -2.38341  -1.53053  -0.63748
H    -4.84187  -1.10336  -0.75431
H    -5.73720   1.16416  -0.23759
H    -4.18860   3.00872   0.39678
H    -1.73276   2.59274   0.51901
H     3.33611   2.61189   0.90105
H     1.76892   2.01039   1.53674
H     1.92133   2.40848  -0.18491
