49
Generated by autodE on: 2022-06-21. E = -1020.886999 Ha. Imaginary frequency = -364.7 cm-1
C    -5.53719   1.26129  -0.70842
C    -4.54481   0.35904  -0.53483
C    -4.78926  -0.95250   0.16670
C    -3.19959   0.65874  -1.00795
C    -2.13345  -0.18770  -0.93414
C    -0.82294   0.16136  -1.39113
C     0.26258  -0.71201  -1.55041
C     0.06029  -2.20110  -1.35446
C     1.28677  -0.33586  -2.60397
C     1.47688  -0.32134   0.21968
C     2.79807  -0.90537   0.10491
C     3.86217  -0.10061  -0.34239
C     5.13270  -0.65736  -0.48141
C     5.34759  -2.00691  -0.17925
C     4.28769  -2.80413   0.26530
C     3.00871  -2.26319   0.40099
N     0.87178   0.37240   1.00625
C    -0.27399   1.07245   1.14372
C    -0.33805   2.40310   0.54148
C     0.93764   2.95414  -0.06102
O    -1.38571   3.05649   0.50648
C    -1.33374   0.47261   1.95107
C    -1.04467  -0.88313   2.55298
O    -2.43938   1.00236   2.09173
H    -5.35100   2.21722  -1.20738
H    -6.55308   1.06786  -0.35315
H    -4.16206  -1.02742   1.07027
H    -5.84229  -1.05470   0.46434
H    -4.52709  -1.80814  -0.47703
H    -3.04980   1.64898  -1.45111
H    -2.27175  -1.18081  -0.50053
H    -0.71076   1.17002  -1.80012
H    -0.45809  -2.43812  -0.41458
H     1.02089  -2.73430  -1.36216
H    -0.54440  -2.60901  -2.18355
H     1.49018   0.74564  -2.60961
H     0.89978  -0.61115  -3.60104
H     2.23639  -0.87213  -2.46916
H     3.68242   0.94970  -0.57821
H     5.96023  -0.03368  -0.82629
H     6.34493  -2.43811  -0.29045
H     4.45618  -3.85576   0.50677
H     2.17766  -2.87837   0.74750
H     0.76712   3.99648  -0.35946
H     1.23215   2.37255  -0.94886
H     1.77309   2.90056   0.65388
H    -0.10227  -0.88304   3.12128
H    -1.87666  -1.17455   3.20669
H    -0.93725  -1.62940   1.74796
