60
Generated by autodE on: 2022-06-13. E = -1919.988445 Ha
C    -1.11479  -3.58051   1.77733
C    -1.44980  -2.15514   1.43098
O    -1.72743  -1.34262   2.28382
C    -1.31512  -1.77577  -0.08684
C    -1.85199  -2.96117  -0.91390
C    -0.96764  -3.56223  -1.95766
O    -2.97810  -3.35288  -0.66883
O     0.06090  -1.59784  -0.34075
C     0.50154  -0.24732  -0.13119
C     1.66929  -0.01505  -1.10153
C     2.36721   1.20379  -1.10067
C     3.42504   1.42156  -1.98402
C     3.81744   0.41857  -2.87700
C     3.13386  -0.79839  -2.87827
C     2.06503  -1.01263  -2.00093
C     1.09411  -0.14201   1.29472
C     1.40410   1.07025   1.93402
C     2.01762   1.08462   3.18942
C     2.35382  -0.10863   3.83255
C     2.09007  -1.32001   3.18993
C     1.47802  -1.33158   1.93479
C    -0.80110   0.64320  -0.48875
C    -0.99945   1.86380   0.38505
C    -1.51690   1.77420   1.68682
C    -1.61400   2.90537   2.49947
C    -1.18086   4.15044   2.03636
C    -0.65123   4.25253   0.74738
C    -0.56579   3.12168  -0.06843
C    -0.76668   1.02783  -2.02900
C    -2.03725   1.79286  -2.36709
C    -3.00459   0.87260  -2.40970
C    -2.30526  -0.43976  -2.09409
O    -1.00937  -0.24239  -2.64763
C    -1.97320  -0.44627  -0.54996
Cl   -3.53464  -0.13923   0.29566
H    -2.03350  -4.18196   1.68436
H    -0.36587  -4.01001   1.09711
H    -0.76445  -3.62840   2.81618
H    -0.61279  -2.78747  -2.65273
H    -1.51216  -4.34933  -2.49415
H    -0.07175  -3.98299  -1.47341
H     2.07741   2.00269  -0.42022
H     3.94646   2.38154  -1.97165
H     4.64942   0.58661  -3.56482
H     3.42805  -1.59271  -3.56857
H     1.53530  -1.96230  -2.01949
H     1.17730   2.02366   1.46758
H     2.23206   2.04479   3.66455
H     2.82807  -0.09349   4.81663
H     2.36459  -2.26666   3.66154
H     1.30634  -2.28461   1.43979
H    -1.80997   0.80465   2.07914
H    -2.01682   2.80651   3.51039
H    -1.24963   5.03348   2.67612
H    -0.29752   5.21544   0.37166
H    -0.12505   3.23167  -1.05868
H     0.17455   1.45645  -2.37399
H    -2.11493   2.87220  -2.48134
H    -4.07493   0.99839  -2.56092
H    -2.78323  -1.35001  -2.46677
