37
Generated by autodE on: 2022-07-27. E = -921.621293 Ha
C    -3.44900  -0.69501   1.43716
C    -2.22657  -0.29265   0.64616
O    -1.89635   0.91472   0.57578
C    -1.46773  -1.29748  -0.01593
O    -0.45250  -0.77184  -0.85465
C     0.33189   0.16804  -0.41424
C     0.85655   1.05485  -1.43563
C     2.07961   1.73849  -1.25745
C     2.56549   2.56606  -2.26567
C     1.84117   2.72560  -3.45249
C     0.62703   2.05056  -3.63851
C     0.13612   1.21694  -2.64101
C     0.78418   0.19775   0.97766
C     0.95497   1.41978   1.65351
C     1.41650   1.42921   2.96847
C     1.71961   0.22541   3.61306
C     1.55786  -0.99302   2.94200
C     1.08087  -1.01288   1.63398
C    -1.68072  -2.70260  -0.11869
C    -0.71859  -3.47646  -1.00056
O    -2.59290  -3.30074   0.48816
H    -4.14758  -1.28741   0.82975
H    -3.15756  -1.32783   2.28984
H    -3.94187   0.21458   1.80640
H     2.65900   1.59423  -0.34589
H     3.51649   3.08453  -2.12997
H     2.22409   3.38047  -4.23850
H     0.06217   2.18522  -4.56299
H    -0.81823   0.70473  -2.76519
H     0.69544   2.35432   1.15529
H     1.53704   2.37881   3.49367
H     2.08470   0.23533   4.64253
H     1.80623  -1.93161   3.44158
H     0.96515  -1.95991   1.10642
H    -0.68367  -3.05710  -2.01845
H    -1.03815  -4.52605  -1.04299
H     0.30605  -3.42499  -0.59654
