60
Generated by autodE on: 2022-06-13. E = -1919.911153 Ha. Imaginary frequency = -319.4 cm-1
C    -2.33839  -3.26305   1.92424
C    -1.35277  -2.21561   1.47018
O    -0.99536  -1.34506   2.26061
C    -0.85742  -2.22370   0.07474
C    -1.29916  -3.24236  -0.89801
C    -0.38732  -3.60487  -2.04215
O    -2.41458  -3.75614  -0.80566
O     0.33700  -1.68702  -0.28313
C     0.96409  -0.55295   0.02222
C     1.81854  -0.04974  -1.06891
C     2.51372   1.17358  -0.95717
C     3.25471   1.67275  -2.02775
C     3.34879   0.95364  -3.22261
C     2.69283  -0.27722  -3.33431
C     1.93174  -0.76914  -2.27738
C     1.37417  -0.32203   1.42789
C     1.52243   0.94149   2.02419
C     2.00672   1.05516   3.32920
C     2.37507  -0.08112   4.05279
C     2.25347  -1.34319   3.46062
C     1.75322  -1.46291   2.16706
C    -1.15353   0.70517  -0.54588
C    -1.03742   1.83255   0.37428
C    -1.46494   1.77422   1.71866
C    -1.32569   2.87598   2.56068
C    -0.74465   4.06027   2.09492
C    -0.30689   4.13181   0.76874
C    -0.45180   3.03528  -0.08199
C    -0.88515   0.90495  -2.06623
C    -2.14830   1.59129  -2.62319
C    -3.09067   0.64231  -2.61601
C    -2.38040  -0.60830  -2.05913
O    -1.05854  -0.42919  -2.56644
C    -2.11634  -0.32182  -0.56461
Cl   -3.53814  -0.36635   0.45133
H    -3.31414  -3.09831   1.44759
H    -2.01479  -4.27911   1.65818
H    -2.44262  -3.16535   3.01323
H    -0.34677  -2.76635  -2.75333
H    -0.80143  -4.48459  -2.55077
H     0.63819  -3.80578  -1.70278
H     2.47399   1.75234  -0.03896
H     3.76880   2.63049  -1.92090
H     3.93583   1.34420  -4.05684
H     2.77066  -0.85898  -4.25556
H     1.42265  -1.72184  -2.38031
H     1.24129   1.84363   1.49147
H     2.09320   2.04626   3.77989
H     2.75760   0.01459   5.07158
H     2.54543  -2.24055   4.01101
H     1.65953  -2.45017   1.71254
H    -1.87099   0.84714   2.11506
H    -1.65775   2.80164   3.59897
H    -0.62863   4.91791   2.76144
H     0.15459   5.04748   0.39158
H    -0.09167   3.11610  -1.10772
H     0.08211   1.32006  -2.35591
H    -2.22248   2.64457  -2.89072
H    -4.14665   0.70203  -2.87563
H    -2.80521  -1.58609  -2.30448
