37
Generated by autodE on: 2022-10-08. E = -880.641831 Ha
C    -2.60073   2.90461  -0.03597
C    -1.34475   2.49841  -0.77584
O    -0.73411   3.34681  -1.44262
C    -0.88744   1.11296  -0.69439
C    -1.28874   0.22953   0.41380
C    -1.64571  -1.11162   0.16581
C    -2.04557  -1.94587   1.20643
C    -2.08865  -1.46458   2.52186
C    -1.72965  -0.14040   2.78287
C    -1.32718   0.69689   1.74007
N    -0.01847   0.65033  -1.64762
C    -0.10859   1.16018  -3.03478
C     0.89634  -0.32993  -1.41990
C     1.37767  -1.07642  -2.52379
N     1.82324  -1.72282  -3.38981
C     1.45062  -0.66444  -0.10229
C     1.68424   0.33012   0.86974
C     2.27319   0.00062   2.08773
C     2.62583  -1.32447   2.37019
C     2.39831  -2.31857   1.41341
C     1.81947  -1.99303   0.18709
H    -3.13631   3.63140  -0.66465
H    -3.25962   2.06223   0.20752
H    -2.33411   3.41930   0.90137
H    -1.61070  -1.50066  -0.85384
H    -2.32775  -2.97936   0.99237
H    -2.39700  -2.12278   3.33738
H    -1.74919   0.24240   3.80585
H    -1.01900   1.71987   1.96007
H    -1.04261   1.70669  -3.16966
H     0.75067   1.80434  -3.25673
H    -0.10291   0.29826  -3.71359
H     1.41308   1.36629   0.66368
H     2.45314   0.78479   2.82651
H     3.07626  -1.57934   3.33210
H     2.66835  -3.35580   1.62408
H     1.64160  -2.77490  -0.55397
