10
Generated by autodE on: 2022-10-08. E = -454.999195 Ha
O    -1.15351  -1.20365  -0.13765
C    -1.24425  -0.35363   0.72000
O    -2.00809  -0.12314   1.70807
C    -0.56226   0.98932   0.65816
C     0.66324   1.32575   0.02882
C     1.29878   0.09296  -0.73238
O     1.12316   0.35904  -1.96793
O     1.92414  -0.83011  -0.17881
H    -1.15699   1.75286   1.18739
H     1.11809   2.30497  -0.07819
