47
Generated by autodE on: 2022-10-08. E = -1335.662836 Ha. Imaginary frequency = -312.7 cm-1
C    -2.72918  -0.29173   2.40956
C    -1.47663   0.41654   1.94054
O    -0.68269   0.85663   2.77483
C    -1.26440   0.61101   0.49456
C    -2.46172   0.91563  -0.34494
C    -2.50963   0.50925  -1.69347
C    -3.60998   0.81014  -2.49567
C    -4.68982   1.52823  -1.97015
C    -4.65076   1.95351  -0.63963
C    -3.54566   1.65590   0.16123
C    -0.74229  -1.65685  -0.00408
C    -1.13536  -2.56456   1.14564
O    -2.10638  -3.33202   0.88197
O    -0.54703  -2.49132   2.25471
C     0.52792  -1.47352  -0.56888
C     1.78838  -2.30363  -0.37065
O     1.92276  -3.01743   0.65607
O     2.63400  -2.21457  -1.30809
C     1.16285   0.53686   0.24272
C     1.53292   0.02737   1.53223
N     2.02481  -0.37368   2.50873
C     2.35280   0.98084  -0.54979
C     2.32925   0.96684  -1.95856
C     3.44512   1.35754  -2.69507
C     4.61664   1.76047  -2.04453
C     4.65912   1.76623  -0.64853
C     3.53973   1.37802   0.09103
N    -0.06363   1.14803   0.03725
C    -0.13080   2.28198  -0.90822
H    -3.42188   0.44492   2.84527
H    -3.24613  -0.84632   1.61872
H    -2.43394  -0.98651   3.20682
H    -1.66991  -0.04109  -2.12070
H    -3.62525   0.48065  -3.53715
H    -5.55335   1.76145  -2.59743
H    -5.47929   2.53088  -0.22266
H    -3.51815   2.02705   1.18649
H    -1.57694  -1.52065  -0.68950
H     0.50308  -1.03424  -1.56892
H     1.43496   0.63609  -2.48466
H     3.40317   1.33563  -3.78647
H     5.49235   2.06124  -2.62429
H     5.56766   2.07567  -0.12689
H     3.58978   1.38793   1.18064
H    -0.24202   1.97237  -1.95358
H    -0.98714   2.90603  -0.63329
H     0.78026   2.88044  -0.80662
