31
Generated by autodE on: 2022-06-18. E = -967.564740 Ha
C     2.94261   0.21586  -2.33234
N     2.41323  -0.31604  -1.08921
C     1.46134   0.32218  -0.40360
O     1.04385   1.45012  -0.65140
C     0.84709  -0.51144   0.77292
C     1.87311  -0.76576   1.78839
N     2.69575  -0.95147   2.58313
O     0.38003  -1.76686   0.29003
C    -0.89485  -1.56136  -0.34757
C    -1.69690  -2.85109  -0.25516
C    -0.63422  -1.25589  -1.77967
N    -0.37374  -1.08954  -2.89686
C    -1.53838  -0.36546   0.42984
C    -2.26124   0.66453  -0.41221
O    -2.90914   0.32829  -1.39176
C    -2.21785   2.07203   0.03090
C    -1.32526   2.52556   0.93033
C    -0.31591   1.65427   1.56774
O     0.54017   2.10588   2.31260
C    -0.42201   0.15687   1.35124
H     2.21952   0.08481  -3.15461
H     3.15589   1.28720  -2.22057
H     3.87038  -0.31298  -2.58215
H     2.58360  -1.29511  -0.87146
H    -1.16417  -3.67184  -0.75493
H    -1.84874  -3.09709   0.80500
H    -2.67235  -2.70142  -0.73858
H    -2.33620  -0.78589   1.06070
H    -2.92199   2.74484  -0.46490
H    -1.27892   3.58214   1.20620
H    -0.56940  -0.26939   2.35326
