17
Generated by autodE on: 2022-10-21. E = -509.625548 Ha
C    -4.17820   0.03689   0.54131
N    -2.96644  -0.72901   0.33882
C    -1.76538  -0.13276   0.23546
O    -1.57771   1.08051   0.33540
N    -0.73373  -1.07956   0.00127
N     0.40125  -0.56610  -0.10199
C     1.48539  -0.13706  -0.20653
C     2.83139   0.38920  -0.34940
C     3.89615  -0.63541  -0.59850
O     3.01901   1.59231  -0.26189
H    -4.08820   0.69120   1.42199
H    -5.01267  -0.65632   0.70240
H    -4.41128   0.67144  -0.33009
H    -3.01771  -1.73307   0.20487
H     4.86590  -0.13285  -0.71063
H     3.65604  -1.21154  -1.50687
H     3.93077  -1.34675   0.24298
