37
Generated by autodE on: 2022-10-21. E = -971.048081 Ha. Imaginary frequency = -263.6 cm-1
C     3.77013  -2.31487  -1.00202
N     3.15337  -1.20269  -0.30607
C     2.30336  -1.40927   0.72045
O     2.01333  -2.53047   1.14495
N     1.71047  -0.28551   1.33541
N     1.78092   0.81410   0.72747
C     1.23438   1.80730   0.34364
C     1.37327   3.18114  -0.14162
C     2.50162   3.40238  -1.10701
O     0.58776   4.04125   0.21863
C    -1.04289   1.15287   0.65161
C    -1.30526   0.75888  -0.82707
O    -0.48311  -0.42723  -0.91439
C    -1.10362  -1.10138   0.19057
C    -2.58414  -1.02926  -0.26537
O    -3.56799  -1.88148   0.10257
C    -3.18271  -3.20931   0.45312
C    -2.71641   0.13975  -0.91723
C    -3.92554   0.84188  -1.42329
C    -0.94137  -0.03613   1.29665
H     4.42350  -1.91859  -1.78882
H     3.01331  -2.96702  -1.46649
H     4.37559  -2.93032  -0.31778
H     3.36235  -0.25679  -0.60696
H     3.45955   3.17696  -0.61079
H     2.48720   4.44367  -1.45433
H     2.40322   2.71113  -1.95935
H    -1.20662   2.14487   1.07171
H    -1.04028   1.49766  -1.59258
H    -0.66217  -2.08483   0.37668
H    -4.11064  -3.76421   0.64357
H    -2.63075  -3.69577  -0.36796
H    -2.56487  -3.22067   1.36576
H    -4.81142   0.19062  -1.37991
H    -4.14038   1.74513  -0.82207
H    -3.79647   1.18216  -2.46535
H    -0.92398  -0.24531   2.36381
