51
Generated by autodE on: 2022-06-07. E = -2107.752082 Ha
C     1.60635   0.20322   4.79892
O     1.87018  -1.10420   5.33050
C     0.86384  -1.98084   5.31882
O    -0.24258  -1.71759   4.90707
C     1.31224  -3.31827   5.96248
C     0.31883  -4.44562   5.63473
C    -1.03490  -4.30145   5.98154
C    -1.95154  -5.32470   5.73229
C    -1.53401  -6.51928   5.13772
C    -0.18842  -6.68066   4.80285
C     0.72791  -5.65478   5.05273
C     1.26394  -2.98992   7.48900
C     1.29785  -4.18165   8.44738
C     2.30346  -5.28611   8.14462
C     3.79115  -4.98519   8.27791
C     4.43878  -3.94064   7.35445
Cl    4.43320  -2.26279   8.10183
Cl    6.23386  -4.38678   7.35317
C     3.92957  -3.84656   5.93219
C     2.70063  -3.61070   5.39659
C     2.88498  -3.62830   3.90476
C     1.83096  -3.33231   2.88916
N     4.09542  -3.88080   3.53730
C     4.88014  -4.05620   4.75837
C     5.94968  -3.05174   4.72202
N     6.76003  -2.22704   4.63061
C     5.39318  -5.54621   4.68682
C     6.72311  -5.77409   4.04938
O     4.65092  -6.42139   5.06862
H     2.54452   0.76087   4.89663
H     0.80695   0.69406   5.37172
H     1.31261   0.13091   3.74191
H    -1.38179  -3.38295   6.45310
H    -2.99929  -5.18681   6.00974
H    -2.25153  -7.31999   4.94409
H     0.15916  -7.61090   4.34769
H     1.77567  -5.82051   4.79873
H     0.32890  -2.44022   7.67297
H     2.06994  -2.28348   7.70004
H     0.29994  -4.64595   8.46496
H     1.47187  -3.78779   9.46315
H     2.11431  -6.11457   8.84607
H     2.11732  -5.70762   7.14803
H     4.05597  -4.70885   9.30931
H     4.31575  -5.92456   8.05498
H     2.15557  -3.70330   1.90868
H     1.69750  -2.24130   2.80666
H     0.85962  -3.77157   3.14284
H     7.51630  -5.32838   4.66957
H     6.90110  -6.84982   3.92905
H     6.75201  -5.26494   3.07288
