15
Generated by autodE on: 2022-06-07. E = -417.109077 Ha
C     3.53699  -0.28354  -0.54413
C     2.15045  -0.14666  -0.17898
N     1.04019  -0.03164   0.13156
C    -0.30319   0.07167   0.31192
C    -0.79046   0.33619   1.60565
N    -1.21924   0.55599   2.67189
C    -1.13276  -0.09977  -0.86219
C    -2.62538   0.01773  -0.65787
O    -0.63796  -0.32921  -1.97288
H     3.99533  -1.11990   0.00619
H     3.58252  -0.49613  -1.62461
H     4.08018   0.65184  -0.33766
H    -2.88625   1.01440  -0.26733
H    -3.13611  -0.14457  -1.61582
H    -2.97869  -0.72258   0.07736
