36
Generated by autodE on: 2022-06-07. E = -1690.542986 Ha
C     2.61055   1.52656  -2.87236
O     1.57321   1.26741  -1.91169
C     0.74039   0.26504  -2.17904
O     0.81415  -0.43462  -3.16486
C    -0.35757   0.14147  -1.10370
C    -1.37967   1.25703  -1.35602
C    -1.80936   2.09553  -0.32086
C    -2.77297   3.07941  -0.56176
C    -3.31403   3.23647  -1.84058
C    -2.88603   2.40248  -2.87860
C    -1.92543   1.41746  -2.63837
C     0.25831   0.17881   0.21917
C     0.71330  -0.20301   1.27514
C     1.00818  -1.18803   2.28864
Cl   -0.26821  -1.09044   3.60057
Cl    2.62675  -0.89696   3.07285
C     0.98961  -2.58435   1.64362
C    -0.23850  -2.89054   0.76343
C    -0.19819  -2.47113  -0.73342
C    -1.04321  -1.26084  -1.18303
H     2.17008   1.78466  -3.84602
H     3.25783   0.64494  -2.98184
H     3.18248   2.37301  -2.47605
H    -1.39125   1.97778   0.68088
H    -3.09980   3.72596   0.25608
H    -4.06533   4.00692  -2.02869
H    -3.30092   2.51827  -3.88259
H    -1.59819   0.77297  -3.45689
H     1.90801  -2.66156   1.04075
H     1.07128  -3.31700   2.46002
H    -1.14601  -2.49386   1.24740
H    -0.34787  -3.98503   0.79137
H    -0.57818  -3.32713  -1.31160
H     0.84697  -2.34354  -1.06057
H    -1.96220  -1.20332  -0.58053
H    -1.35147  -1.39666  -2.22932
