51
Generated by autodE on: 2022-06-07. E = -2107.647900 Ha. Imaginary frequency = -333.2 cm-1
C     1.52594   0.12331   4.77583
O     1.80711  -1.17096   5.33108
C     0.79516  -2.03735   5.39058
O    -0.32427  -1.77961   5.00775
C     1.22652  -3.34941   6.07695
C     0.28977  -4.50307   5.70745
C    -1.06951  -4.44138   6.05574
C    -1.93100  -5.49595   5.74836
C    -1.44959  -6.63339   5.09152
C    -0.09845  -6.70591   4.74726
C     0.76483  -5.64943   5.05518
C     1.14217  -3.00719   7.61422
C     1.16194  -4.18221   8.59496
C     2.33111  -5.17160   8.53247
C     3.73608  -4.54447   8.61464
C     4.51112  -4.61529   7.29214
Cl    6.11312  -3.77311   7.51958
Cl    4.86560  -6.38689   6.93744
C     3.75326  -4.04900   6.18424
C     2.64818  -3.67434   5.76320
C     2.90354  -3.29057   3.51077
C     1.72653  -3.08003   2.66687
N     4.09683  -3.34783   3.46242
C     5.21444  -3.79154   4.03631
C     6.23837  -2.84580   4.31854
N     7.07840  -2.06755   4.53451
C     5.48497  -5.24560   3.91696
C     6.86037  -5.70887   4.31045
O     4.62199  -5.99787   3.47916
H     2.47173   0.67556   4.80926
H     0.76021   0.63633   5.37464
H     1.17741   0.02534   3.73786
H    -1.46035  -3.56513   6.57240
H    -2.98510  -5.42917   6.02800
H    -2.12445  -7.45893   4.85353
H     0.29328  -7.58925   4.23750
H     1.81876  -5.72499   4.78325
H     0.20646  -2.45106   7.78025
H     1.96134  -2.30566   7.82741
H     0.22787  -4.75550   8.49016
H     1.13083  -3.73445   9.60315
H     2.21352  -5.87514   9.37058
H     2.25123  -5.78622   7.62393
H     3.67769  -3.47940   8.88639
H     4.35415  -5.03721   9.37811
H     1.91450  -3.50110   1.66766
H     1.55800  -1.99506   2.57543
H     0.83000  -3.53813   3.09963
H     7.17191  -5.27729   5.27153
H     6.87968  -6.80411   4.36410
H     7.57797  -5.36679   3.54529
