57
Generated by autodE on: 2022-06-15. E = -1619.136426 Ha
C     4.94276   0.36402   7.64351
N     4.96311   1.81402   7.67989
C     6.08420   2.49255   7.96068
O     7.14342   1.95168   8.26579
C     5.95929   4.06765   7.89025
C     4.63643   4.38305   8.61380
O     3.56593   4.37633   7.99319
N     4.69709   4.55687   9.93742
C     3.50001   4.84146  10.70978
C     7.25251   4.67570   8.49910
C     7.30534   6.16901   8.84884
C     6.87573   7.18191   7.78342
C     5.34741   7.27091   7.61339
C     4.78481   6.78163   6.24143
C     5.03138   7.97584   5.29966
O     6.13249   8.32577   4.93984
O     3.91032   8.62527   5.01193
C     4.02522   9.78350   4.16721
C     3.26405   6.52402   6.29859
O     2.67142   5.86934   5.46750
O     2.67978   7.11929   7.32872
C     1.27434   6.88425   7.50285
C     5.46499   5.52716   5.73220
C     5.86659   4.44792   6.42305
O     6.41896   3.47031   5.63489
O     6.15184   3.85090   4.26496
C     5.81286   5.23477   4.26477
C     6.99865   5.97264   3.75400
N     7.97752   6.40468   3.30762
C     4.59491   5.46449   3.31055
C     3.72373   4.28580   3.04322
O     4.44137   6.57448   2.85187
H     5.56274  -0.02493   6.81930
H     3.90891   0.02806   7.49933
H     5.32657  -0.05402   8.58608
H     4.13280   2.33440   7.40831
H     5.59821   4.57078  10.40244
H     2.98469   5.73014  10.31274
H     3.78834   5.02737  11.75093
H     2.79789   3.99418  10.67703
H     7.48853   4.09949   9.40554
H     8.05657   4.43785   7.78749
H     6.72186   6.36402   9.76300
H     8.35392   6.36934   9.12158
H     7.24641   8.17002   8.09322
H     7.37077   6.96439   6.82541
H     5.00418   8.30600   7.74566
H     4.84259   6.71696   8.41082
H     3.00687  10.16996   4.05044
H     4.44078   9.49215   3.19265
H     4.67153  10.53628   4.63944
H     1.09294   5.81135   7.65683
H     0.71473   7.23478   6.62425
H     0.98306   7.45186   8.39372
H     4.26603   3.60276   2.36703
H     3.51615   3.73311   3.96903
H     2.79426   4.61896   2.56533
