57
Generated by autodE on: 2022-06-15. E = -1619.032629 Ha. Imaginary frequency = -173.5 cm-1
C     8.16513   2.18127   6.31635
N     7.16212   3.08314   6.85047
C     6.59035   2.88551   8.04207
O     6.91946   1.94706   8.78139
C     5.57402   3.95470   8.50793
C     4.34760   3.39890   9.28771
O     3.29427   4.04401   9.31374
N     4.52676   2.26185   9.96374
C     3.47315   1.68877  10.77661
C     6.38591   4.90281   9.47153
C     5.71833   6.22971   9.86097
C     5.97143   7.44367   8.93326
C     4.82876   7.89990   8.01162
C     4.75712   7.24226   6.59922
C     5.93868   7.69475   5.71951
O     6.73101   8.55790   6.02048
O     5.96106   7.01437   4.58375
C     6.98908   7.32628   3.63262
C     3.44296   7.72907   5.96954
O     2.36818   7.21728   6.18687
O     3.62940   8.80444   5.21708
C     2.46966   9.36771   4.57557
C     4.77475   5.77647   6.75629
C     5.06807   4.77696   7.41099
O     4.11656   2.94998   6.35749
O     3.25183   3.63230   5.61754
C     3.77488   4.46184   4.77278
C     5.11025   4.25051   4.30451
N     6.15878   4.03609   3.85362
C     2.83497   5.34356   3.99341
C     1.37264   5.14537   4.21676
O     3.32985   6.13781   3.21608
H     7.81318   1.13960   6.35884
H     9.10920   2.24842   6.88029
H     8.35381   2.45174   5.27049
H     6.85129   3.85801   6.27421
H     5.43102   1.79848   9.84979
H     3.15119   2.39001  11.56262
H     2.58938   1.43590  10.16891
H     3.84877   0.77396  11.25100
H     7.35254   5.11097   8.98725
H     6.60087   4.30512  10.36862
H     6.12468   6.48649  10.85110
H     4.63798   6.08052  10.01272
H     6.18527   8.30802   9.58017
H     6.89063   7.28578   8.34723
H     3.86129   7.71754   8.50228
H     4.90657   8.98207   7.83400
H     6.80104   6.67995   2.76869
H     6.92642   8.38443   3.34218
H     7.97902   7.11594   4.06136
H     1.70835   9.62538   5.32419
H     2.06087   8.64643   3.85444
H     2.82245  10.26691   4.05897
H     1.14119   5.09442   5.28870
H     1.08091   4.18114   3.76559
H     0.81749   5.95999   3.73641
