48
Generated by autodE on: 2022-06-01. E = -1165.527394 Ha
C     1.03001  -3.38940   2.24093
N     0.67636  -2.44014   1.20459
C     1.21751  -1.20949   1.14969
O     2.17615  -0.85942   1.85476
C     0.61121  -0.26479   0.16934
C    -0.68075   0.10766   0.08126
C    -1.72896  -0.24708   1.06477
C    -3.04698  -0.57919   0.70269
C    -3.98907  -0.91373   1.67847
C    -3.64155  -0.91157   3.03237
C    -2.34000  -0.56288   3.40761
C    -1.39586  -0.23021   2.43622
C    -0.82992   1.11535  -1.07568
C    -1.66669   2.33773  -0.68896
C    -1.48306   0.47509  -2.33005
O    -2.55456  -0.14303  -2.28182
N    -0.83155   0.70286  -3.47623
C    -1.29168   0.18477  -4.74675
N     0.56068   1.50915  -1.38481
C     1.47438   0.47745  -0.85151
C     1.99447  -0.47469  -1.93276
C     2.60921   1.19359  -0.10307
O     2.44310   2.23779   0.49681
O     3.77279   0.56221  -0.17908
C     4.84673   1.08638   0.61613
H     0.53740  -3.14324   3.19783
H     0.72019  -4.39614   1.93325
H     2.11628  -3.38213   2.40152
H    -0.16033  -2.61034   0.65566
H    -3.31268  -0.58208  -0.35303
H    -5.00510  -1.17848   1.37555
H    -4.38249  -1.17058   3.79235
H    -2.05940  -0.53958   4.46326
H    -0.39243   0.06921   2.74403
H    -2.70985   2.04973  -0.50393
H    -1.64865   3.08059  -1.50050
H    -1.25891   2.79536   0.22513
H     0.06988   1.16634  -3.37760
H    -2.33227   0.48787  -4.93975
H    -0.65359   0.57986  -5.54699
H    -1.25108  -0.91703  -4.77377
H     0.75417   2.36826  -0.86942
H     2.60550   0.06821  -2.66859
H     1.14407  -0.93800  -2.45035
H     2.60314  -1.27357  -1.48787
H     5.71538   0.45231   0.40575
H     5.05803   2.12910   0.34104
H     4.58201   1.02996   1.68188
