27
Generated by autodE on: 2022-06-01. E = -648.781031 Ha
C    -4.48026   1.22825   0.82849
N    -3.50878   0.19362   0.53813
C    -2.19894   0.47890   0.38744
O    -1.76663   1.64748   0.48930
C    -1.28810  -0.64724   0.09609
C    -1.77714  -2.05269  -0.03238
N    -0.03346  -0.23370  -0.02877
C     1.17789  -0.76686  -0.28013
C     1.41842  -2.22125  -0.51796
C     2.21789   0.23661  -0.29105
O     2.02961   1.44287  -0.09527
O     3.45089  -0.26032  -0.53904
C     4.52597   0.67964  -0.56036
H    -5.47109   0.76757   0.92251
H    -4.24193   1.74967   1.76951
H    -4.51627   1.98326   0.02650
H    -3.82947  -0.76331   0.44984
H    -0.97276  -2.76325  -0.23511
H    -2.28492  -2.37541   0.89312
H    -2.51475  -2.13701  -0.84938
H     0.01739   0.79355   0.10855
H     0.86838  -2.59419  -1.39864
H     2.48580  -2.39253  -0.69510
H     1.11862  -2.83820   0.34597
H     4.37091   1.43837  -1.34233
H     5.43216   0.10083  -0.77697
H     4.62780   1.18393   0.41258
