47
Generated by autodE on: 2022-06-23. E = -1466.893397 Ha
C     0.10199   4.94982   1.35001
N     0.37429   3.52854   1.24798
C     0.49170   2.92699   0.05775
O     0.53684   3.48841  -1.03176
C     0.64928   1.40697   0.15093
O     1.85713   1.10348   0.89394
C     2.28660  -0.10326   0.43844
O     3.26527  -0.66514   0.83176
C     1.21801  -0.49186  -0.59699
C     1.60884  -1.38760  -1.75643
O     1.25929  -1.15864  -2.89025
O     2.36969  -2.39660  -1.37056
C     2.71698  -3.36678  -2.37521
O     0.84322   0.79494  -1.09026
C    -0.02932  -0.89183   0.32458
O     0.33085  -1.56186   1.49759
C     0.75510  -2.92903   1.46369
C    -1.05478  -1.71103  -0.47168
O    -0.66329  -2.69579  -1.07814
C    -2.48395  -1.34916  -0.42773
C    -3.47274  -2.39511  -0.83180
C    -2.86129  -0.06267  -0.17388
C    -4.28601   0.37650  -0.28756
C    -1.85360   0.97166   0.13673
O    -2.09880   2.16029   0.01780
C    -0.50131   0.55395   0.75620
O    -0.52324   0.77355   2.13500
C    -1.63614   0.25969   2.87123
H     0.77366   5.51111   0.68647
H    -0.93873   5.17924   1.06503
H     0.26813   5.27441   2.38448
H     0.19828   2.93400   2.05564
H     3.27339  -2.88592  -3.19122
H     1.80379  -3.83448  -2.76951
H     3.34192  -4.11009  -1.86879
H     1.57020  -3.08401   0.74535
H    -0.07945  -3.60656   1.22929
H     1.11442  -3.14097   2.47909
H    -3.00384  -3.38330  -0.90456
H    -4.30434  -2.43516  -0.11144
H    -3.91462  -2.14711  -1.81219
H    -4.92058  -0.21207   0.39444
H    -4.39559   1.44156  -0.05407
H    -4.66604   0.19614  -1.30675
H    -1.38311   0.38797   3.93136
H    -1.79778  -0.80688   2.66097
H    -2.55624   0.82636   2.65164
