26
Generated by autodE on: 2022-06-23. E = -689.460857 Ha
C    -3.25595  -0.95735  -0.12626
O    -1.93304  -1.47762   0.04183
C    -0.84413  -0.71138  -0.01304
C    -0.74023   0.62360  -0.26726
O    -1.81445   1.41202  -0.56648
C    -2.22443   2.32489   0.45692
C     0.58679   1.27436  -0.30756
O     0.66645   2.46995  -0.58478
C     1.81592   0.47383  -0.02342
C     3.12931   1.18972  -0.04430
C     1.72514  -0.85614   0.22568
C     2.93138  -1.70023   0.49980
C     0.39928  -1.52575   0.22925
O     0.28662  -2.72655   0.43439
H    -3.92181  -1.82266  -0.01610
H    -3.38304  -0.51408  -1.12225
H    -3.48882  -0.21463   0.64998
H    -3.09589   2.86520   0.06394
H    -2.51435   1.77937   1.37035
H    -1.42677   3.04361   0.69644
H     3.79654   0.75632  -0.80791
H     3.64774   1.08009   0.92254
H     2.99551   2.25674  -0.25701
H     3.63275  -1.66578  -0.35020
H     2.65262  -2.74440   0.68362
H     3.48104  -1.32046   1.37674
