47
Generated by autodE on: 2022-06-23. E = -1466.862664 Ha. Imaginary frequency = -362.9 cm-1
C    -0.15927   4.89841   1.15903
N     0.44176   3.59430   0.94325
C     0.04704   2.81358  -0.06517
O    -0.74994   3.11697  -0.95011
C     0.62503   1.42125  -0.05545
O     1.81305   1.16546   0.52514
C     2.27999  -0.07376  -0.00702
O     3.25766  -0.61501   0.44012
C     1.31383  -0.37212  -1.02172
C     1.27258  -1.41318  -2.03618
O     0.50456  -1.40908  -2.98092
O     2.14227  -2.39017  -1.76656
C     2.11854  -3.53101  -2.63905
O     0.49887   0.71987  -1.18359
C    -0.18015  -0.97989   1.04451
O     0.66060  -1.46516   1.93082
C     1.30670  -2.75266   1.82642
C    -0.89806  -1.82160   0.03474
O    -0.66234  -3.01956  -0.07368
C    -1.93088  -1.15825  -0.80595
C    -2.46432  -1.93488  -1.96952
C    -2.41437   0.07393  -0.48994
C    -3.47138   0.75304  -1.29953
C    -1.91135   0.79219   0.70788
O    -2.50398   1.74271   1.20127
C    -0.59087   0.37280   1.26376
O    -0.18131   0.98353   2.41906
C    -0.87536   0.59797   3.61456
H    -0.15068   5.48022   0.22716
H    -1.20360   4.79711   1.49711
H     0.41684   5.43316   1.92299
H     1.00676   3.18148   1.68070
H     2.32731  -3.22865  -3.67473
H     1.13815  -4.02552  -2.58659
H     2.90280  -4.20252  -2.27241
H     1.71348  -2.89437   0.81969
H     0.59667  -3.55172   2.06968
H     2.11324  -2.71641   2.56771
H    -1.90531  -2.86458  -2.12071
H    -3.52633  -2.18658  -1.80904
H    -2.41276  -1.33128  -2.88805
H    -4.32813   0.08557  -1.48011
H    -3.82265   1.66424  -0.80127
H    -3.06361   1.02856  -2.28708
H    -0.38427   1.13060   4.43893
H    -0.79944  -0.48666   3.78434
H    -1.93337   0.89454   3.56483
