20
Generated by autodE on: 2022-10-21. E = -661.182114 Ha
C    -4.08456   0.07729  -0.36419
N    -2.69585  -0.33106  -0.32300
C    -1.71605   0.54562  -0.01961
O    -1.93844   1.73714   0.24506
C    -0.36345  -0.02652  -0.03120
C     0.00756  -1.36730  -0.32921
O    -0.60393  -2.37651  -0.63097
O     1.42311  -1.38613  -0.21096
C     1.82797  -0.15792   0.12840
C     3.18873   0.14835   0.31656
N     4.31762   0.39030   0.46985
N     0.79368   0.66814   0.24230
C     0.90611   2.08322   0.60552
H    -4.41948   0.46322   0.61200
H    -4.24897   0.86916  -1.11266
H    -4.69984  -0.79090  -0.62940
H    -2.44187  -1.29423  -0.53194
H     1.96545   2.31824   0.75678
H     0.33933   2.26157   1.52560
H     0.49034   2.69304  -0.20359
