38
Generated by autodE on: 2022-10-21. E = -1175.560242 Ha. Imaginary frequency = -360.8 cm-1
C    -3.49037   3.43283   0.80734
N    -2.86582   2.32368   0.11567
C    -2.80903   1.09855   0.66776
O    -3.28378   0.82895   1.77829
C    -2.07890   0.09501  -0.14255
C    -1.56371   0.29256  -1.48120
O    -1.52045   1.26158  -2.21220
O    -1.05751  -0.94391  -1.86474
C    -1.11168  -1.75580  -0.75971
C    -0.90692  -3.15078  -0.96776
N    -0.66020  -4.27713  -1.11315
C     0.61334  -1.02901   0.30623
C     1.76322  -0.78624  -0.69043
O     1.30133   0.38792  -1.37154
C     1.09342   1.18077  -0.20096
C     2.49468   1.07274   0.44006
O     2.95627   2.07311   1.15346
C     4.23059   1.92097   1.79996
C     2.94681  -0.17770   0.12611
C     4.10612  -0.88230   0.48032
N     5.05436  -1.51486   0.73988
C     0.19385   0.26360   0.63563
N    -2.05982  -1.25486   0.09747
C    -2.38600  -1.91370   1.35715
H    -3.01319   3.61014   1.78403
H    -4.56131   3.24403   0.98441
H    -3.38721   4.33517   0.19304
H    -2.46925   2.45582  -0.81343
H     0.63936  -1.86182   1.01069
H     2.02026  -1.59402  -1.38285
H     0.74293   2.19341  -0.42521
H     4.41756   2.85996   2.33308
H     5.01612   1.75064   1.04935
H     4.19476   1.08265   2.51097
H    -0.23193   0.57295   1.58865
H    -1.71479  -1.56424   2.15525
H    -2.26943  -2.99571   1.22111
H    -3.42037  -1.68566   1.62918
