37
Generated by autodE on: 2022-10-20. E = -1302.318689 Ha
C     3.13316  -2.72204  -1.20007
O     1.97311  -2.37435  -0.43741
C     1.89042  -1.14377   0.07684
C     2.67489  -0.04672   0.13077
Cl    4.23489   0.31108  -0.53412
C     1.79356   1.05096   0.72459
O     0.96473   0.29346   1.62423
C     0.55967  -0.68904   0.66163
C    -0.11820   0.20428  -0.43328
C     0.77695   1.47765  -0.37082
C    -0.20275   2.60038   0.04442
C    -0.64820   3.44060  -1.14487
N    -1.34451   1.90923   0.67340
N    -1.43694   0.69525  -0.06322
C    -2.54538  -0.11303   0.08690
C    -2.55048  -1.43530  -0.41947
C    -3.69148  -2.22985  -0.30484
C    -4.84998  -1.74950   0.31573
C    -4.84357  -0.44701   0.82860
C    -3.71330   0.36319   0.72667
H     2.98154  -3.75629  -1.53333
H     3.23656  -2.06239  -2.07444
H     4.04077  -2.66352  -0.58099
H     2.31290   1.86589   1.24165
H    -0.06879  -1.46907   1.10483
H    -0.14250  -0.29613  -1.40919
H     1.28903   1.70435  -1.31353
H     0.24813   3.24983   0.80910
H    -1.10878   2.80917  -1.92095
H     0.21300   3.95753  -1.59555
H    -1.38480   4.19605  -0.83183
H    -1.05462   1.65712   1.62475
H    -1.66227  -1.84294  -0.90233
H    -3.66807  -3.24655  -0.70625
H    -5.73704  -2.38013   0.40457
H    -5.73438  -0.05090   1.32381
H    -3.71798   1.37393   1.13149
