20
Generated by autodE on: 2022-10-26. E = -420.518100 Ha
C     1.42141   3.32018  -1.42486
C     1.57458   2.72674  -0.07772
N     1.08087   1.54789   0.20357
N     0.46249   0.75439  -0.66082
C    -0.16299  -0.34455  -0.10806
C    -0.59363  -1.35237  -1.00987
C    -1.23218  -2.50338  -0.56027
C    -1.47298  -2.70279   0.80759
C    -1.07126  -1.71249   1.70949
C    -0.43867  -0.54710   1.27003
H     0.35901   3.33369  -1.72750
H     1.94654   2.71420  -2.18681
H     1.82093   4.34235  -1.45015
H     2.11202   3.21653   0.73461
H     1.22813   1.21997   1.16848
H    -0.39930  -1.20251  -2.07457
H    -1.54447  -3.26012  -1.28527
H    -1.97287  -3.60763   1.15987
H    -1.26698  -1.83695   2.77828
H    -0.18745   0.21468   2.01209
