17
Generated by autodE on: 2022-10-20. E = -881.716533 Ha
C     2.96026  -0.83989  -0.31951
O     1.96073  -0.09257   0.37926
C     0.72927  -0.05935  -0.14676
C    -0.30958   0.71621   0.20929
Cl   -0.40937   1.87995   1.48074
C    -1.52319   0.13977  -0.54253
C    -1.82585  -1.26152   0.04928
C    -0.79360  -2.02212  -0.32488
C     0.11559  -1.07592  -1.14951
O    -0.87450  -0.24145  -1.77297
H     3.89380  -0.70267   0.24032
H     3.09064  -0.46271  -1.34613
H     2.70849  -1.91173  -0.34624
H    -2.36759   0.81853  -0.70374
H    -2.68414  -1.50578   0.67412
H    -0.56562  -3.06143  -0.09211
H     0.79256  -1.53291  -1.87789
