37
Generated by autodE on: 2022-10-20. E = -1302.230507 Ha. Imaginary frequency = -312.0 cm-1
C     3.31260  -2.93667  -0.74094
O     1.97064  -2.46586  -0.58926
C     1.78100  -1.24860  -0.07012
C     2.55080  -0.25255   0.41307
Cl    4.26704  -0.03891   0.53398
C     1.56913   0.91079   0.67825
O     0.41769   0.16089   1.11684
C     0.34844  -0.66957  -0.05759
C     0.28864   0.39844  -1.16158
C     1.05633   1.43722  -0.68280
C    -0.51109   2.98479  -0.10701
C    -0.60753   3.68810  -1.42063
N    -1.42019   2.07752   0.25889
N    -1.91851   1.23906  -0.63997
C    -2.70580   0.21804  -0.13214
C    -3.02677  -0.84072  -1.01597
C    -3.79143  -1.92300  -0.59211
C    -4.27278  -1.98675   0.72405
C    -3.97728  -0.93998   1.60204
C    -3.20905   0.15164   1.18889
H     3.23889  -3.94392  -1.16990
H     3.88021  -2.28463  -1.42178
H     3.82186  -2.98656   0.23336
H     1.89168   1.64526   1.42492
H    -0.45790  -1.40941  -0.00507
H     0.00638   0.18428  -2.18936
H     1.61156   2.15847  -1.28101
H    -0.04501   3.50063   0.73543
H    -0.77517   2.98836  -2.24966
H     0.31060   4.25993  -1.61354
H    -1.45242   4.40148  -1.40495
H    -1.31429   1.73323   1.21890
H    -2.64681  -0.79348  -2.03883
H    -4.01641  -2.72909  -1.29550
H    -4.87485  -2.83588   1.05458
H    -4.35699  -0.96411   2.62709
H    -3.02570   0.96427   1.89437
