36
Generated by autodE on: 2022-07-27. E = -912.991344 Ha
C    -3.37027  -1.95009   1.86092
N    -2.81521  -1.16559   0.77729
C    -1.62161  -0.53426   0.85225
O    -0.88818  -0.62338   1.84897
C    -1.24903   0.30601  -0.32320
C    -2.25542   1.00270  -1.16717
O    -2.08219   1.17544  -2.38542
N    -3.36760   1.44007  -0.52841
C    -4.50897   2.01293  -1.21090
N     0.07506   0.50906  -0.56765
C     0.51942   1.79893  -1.13779
C     1.00583  -0.43432  -0.27598
C     0.59138  -1.78820  -0.26700
N     0.30444  -2.90843  -0.29068
C     2.39286  -0.13540   0.09848
C     2.71069   0.99491   0.87948
C     4.03121   1.24828   1.24798
C     5.05335   0.37431   0.86211
C     4.74419  -0.76411   0.10902
C     3.42722  -1.02068  -0.26795
H    -4.42593  -1.68586   2.02349
H    -3.31111  -3.02976   1.64509
H    -2.80427  -1.74638   2.77714
H    -3.33367  -1.12373  -0.09390
H    -3.44425   1.28801   0.47136
H    -4.24553   2.18979  -2.25978
H    -4.79316   2.97092  -0.74948
H    -5.38037   1.33814  -1.17204
H     1.57344   1.73307  -1.41689
H    -0.08121   1.99146  -2.03086
H     0.35993   2.60058  -0.40573
H     1.91705   1.66176   1.21853
H     4.26161   2.12737   1.85412
H     6.08622   0.57392   1.15609
H     5.53560  -1.45497  -0.19012
H     3.19285  -1.90806  -0.85989
