48
Generated by autodE on: 2022-06-05. E = -1480.268927 Ha. Imaginary frequency = -155.9 cm-1
C    -3.50630  -1.47078   2.36931
N    -2.85434  -0.69686   1.33102
C    -1.90911   0.20322   1.63327
O    -1.57404   0.47675   2.79112
C    -1.28746   0.98279   0.48697
C    -2.15124   1.88761  -0.33462
O    -1.71812   2.50691  -1.31669
N    -3.45576   1.94680   0.00939
C    -4.42251   2.56622  -0.87642
C    -0.88544  -0.67470  -1.35219
C    -2.16216  -0.57764  -2.04016
C    -2.10468  -0.01239  -3.42694
O    -3.21185  -0.93094  -1.50866
C     0.28070  -1.03596  -1.15016
C     1.46141  -1.82278  -1.53464
F     2.18189  -2.25793  -0.48711
F     2.29159  -1.10224  -2.31321
F     1.10685  -2.91340  -2.24117
C     0.93110   0.20725   0.89334
C     0.47829  -0.98192   1.54481
N     0.22320  -1.98216   2.08486
C     2.39733   0.43463   1.02462
C     3.01888   0.16706   2.25800
C     4.39527   0.33945   2.40911
C     5.17120   0.76951   1.32890
C     4.56306   1.02456   0.09541
C     3.18766   0.85684  -0.05936
N     0.05270   1.19800   0.55196
C     0.62779   2.47380   0.07440
H    -4.31558  -2.05803   1.91807
H    -2.79425  -2.15775   2.85646
H    -3.92901  -0.81200   3.14248
H    -3.02699  -0.92438   0.34527
H    -3.80847   1.33935   0.74023
H    -4.13403   3.60178  -1.10580
H    -5.40163   2.57026  -0.38237
H    -4.50437   2.01315  -1.82746
H    -3.09960  -0.05603  -3.88913
H    -1.36732  -0.56290  -4.03172
H    -1.76433   1.03305  -3.35788
H     2.41817  -0.17017   3.10509
H     4.86205   0.13653   3.37544
H     6.24944   0.90004   1.44560
H     5.16452   1.34814  -0.75688
H     2.72732   1.03463  -1.03011
H     1.53012   2.67614   0.65843
H     0.87474   2.41551  -0.99084
H    -0.09616   3.27202   0.24224
