39
Generated by autodE on: 2022-06-17. E = -860.319425 Ha
C    -3.72960  -0.87600   3.03091
N    -2.84189  -0.01661   2.27207
C    -1.61592  -0.41470   1.89388
O    -1.11446  -1.48065   2.27883
C    -0.87281   0.53420   0.95519
N     0.57594   0.48332   1.20365
C     1.25244  -0.26558   0.12820
C     2.19977  -1.32436   0.69926
C     2.09369   0.66993  -0.76261
O     2.43461   0.31283  -1.89987
N     2.45875   1.82810  -0.20424
C     3.19079   2.84818  -0.92429
C     0.09631  -0.86824  -0.70745
C     0.46755  -1.37002  -2.07455
O    -0.14247  -1.14627  -3.10546
C    -1.06258   0.13983  -0.55066
C    -0.89401   1.40680  -1.40775
C    -2.41959  -0.49926  -0.85647
H    -3.22038  -1.25890   3.92728
H    -4.60903  -0.29869   3.34183
H    -4.06602  -1.74126   2.43485
H    -3.21549   0.83560   1.86630
H    -1.26923   1.54948   1.11051
H     0.74459   0.01226   2.08964
H     2.70111  -1.87640  -0.10781
H     1.62870  -2.03183   1.31830
H     2.97328  -0.85066   1.32300
H     1.98044   2.04036   0.67000
H     4.01723   2.39375  -1.48857
H     2.54412   3.38570  -1.63929
H     3.60400   3.57325  -0.21141
H    -0.19449  -1.79205  -0.17375
H     1.31886  -2.08765  -2.07562
H    -0.00821   1.99070  -1.12395
H    -1.77045   2.05893  -1.27028
H    -0.81471   1.15336  -2.47247
H    -3.24464   0.17956  -0.59221
H    -2.49299  -0.71916  -1.93096
H    -2.56031  -1.44452  -0.31041
