14
Generated by autodE on: 2022-06-17. E = -270.683217 Ha
C    -1.18104  -0.86162   0.62453
C    -0.77769   0.23166  -0.32298
C    -1.88775   0.89749  -1.07320
C     0.51248   0.62309  -0.51166
C     1.67923   0.06540   0.15564
O     1.68595  -0.82296   1.00495
H    -2.26130  -1.05603   0.56975
H    -0.63502  -1.79357   0.41208
H    -0.92376  -0.59174   1.66187
H    -1.53133   1.69507  -1.73955
H    -2.61949   1.31986  -0.36208
H    -2.44099   0.14916  -1.66762
H     0.72138   1.42661  -1.22398
H     2.64722   0.52166  -0.16504
