25
Generated by autodE on: 2022-07-27. E = -589.576531 Ha
C    -4.41227   0.41130   1.80328
N    -3.19116   0.63415   1.06297
C    -2.11356  -0.18940   1.11210
O    -2.08808  -1.23336   1.80564
C    -0.97535   0.20957   0.30492
N     0.07814  -0.61187   0.38096
C     1.30182  -0.65936  -0.15337
C     2.18977  -1.80405   0.23367
C     1.72823   0.38917  -1.07834
O     0.99061   1.34568  -1.39688
N     2.98846   0.25575  -1.57772
C     3.58415   1.19597  -2.50053
H    -4.61250   1.23498   2.50839
H    -5.28032   0.32057   1.12984
H    -4.31554  -0.51939   2.37437
H    -3.12433   1.46125   0.47912
H    -0.93842   1.09501  -0.31816
H    -0.14258  -1.39133   1.02014
H     2.48648  -2.40937  -0.64082
H     3.11895  -1.45728   0.71877
H     1.67605  -2.47140   0.94095
H     3.54774  -0.53675  -1.28561
H     3.86986   0.70401  -3.44463
H     2.85586   1.98405  -2.72345
H     4.48618   1.66328  -2.07225
