53
Generated by autodE on: 2022-06-22. E = -1023.371303 Ha
C     2.46388  -2.66303   1.67582
O     1.56606  -1.54553   1.72282
C     0.59489  -1.50698   0.80203
O     0.38274  -2.42489   0.03273
C    -0.20089  -0.20040   0.86625
N    -1.63219  -0.40340   0.92571
C    -2.12859  -1.30490   1.93888
C    -2.26296  -0.37589  -0.41010
C    -2.80817  -1.75173  -0.84337
C    -3.42200   0.63699  -0.44956
C    -3.85679   1.31644   0.69611
C    -4.92507   2.21890   0.63849
C    -5.57926   2.46237  -0.57149
C    -5.15433   1.79205  -1.72395
C    -4.09100   0.88864  -1.66001
C    -1.09266   0.04972  -1.33660
C    -0.00493   0.65316  -0.42439
C    -0.30311   2.13051  -0.10529
C     1.36530   0.54509  -1.05583
C     2.53063   0.50282  -0.38155
C     3.83551   0.36369  -1.00706
C     5.00993   0.12962  -0.37339
C     5.15187  -0.03340   1.11491
C     6.29055  -0.01175  -1.14777
H     3.17482  -2.51784   2.49701
H     2.99518  -2.68103   0.71291
H     1.91551  -3.60644   1.80945
H     0.15237   0.33890   1.75929
H    -1.69987  -1.02942   2.91640
H    -3.22226  -1.22277   2.02407
H    -1.88556  -2.37237   1.75948
H    -3.65994  -2.06213  -0.22046
H    -3.15271  -1.71361  -1.88688
H    -2.01814  -2.51131  -0.76936
H    -3.34145   1.14396   1.64056
H    -5.24373   2.73643   1.54710
H    -6.41143   3.16900  -0.61859
H    -5.65245   1.97494  -2.67955
H    -3.77309   0.37682  -2.57139
H    -1.40681   0.75701  -2.11594
H    -0.68957  -0.84118  -1.83709
H    -1.30103   2.25367   0.33781
H    -0.26074   2.73111  -1.02708
H     0.44452   2.52820   0.59761
H     1.38451   0.51863  -2.15234
H     2.50328   0.54482   0.70969
H     3.85002   0.42859  -2.10187
H     5.89091   0.68397   1.51278
H     5.54394  -1.03912   1.34887
H     4.21291   0.09829   1.66710
H     6.75512  -0.99666  -0.96131
H     6.13570   0.10025  -2.23104
H     7.03047   0.74120  -0.82161
