23
Generated by autodE on: 2022-06-22. E = -351.521381 Ha
C    -3.71080   0.72123  -0.09795
C    -2.57778   0.05021   0.20514
C    -2.61494  -1.23299   0.99518
C    -1.28338   0.56740  -0.23450
C    -0.07828  -0.00701   0.00784
C     1.17769   0.55027  -0.45144
C     2.42012   0.04349  -0.24852
C     3.63371   0.74396  -0.79109
C     2.70884  -1.22049   0.51049
H    -3.68072   1.65267  -0.67174
H    -4.69213   0.35712   0.21876
H    -2.03164  -1.14332   1.92671
H    -2.16896  -2.06427   0.42419
H    -3.64580  -1.50866   1.25862
H    -1.31085   1.50195  -0.80780
H    -0.04270  -0.93853   0.57926
H     1.10036   1.48333  -1.02268
H     4.33001   1.00893   0.02491
H     3.37435   1.66183  -1.33883
H     4.19866   0.07968  -1.46961
H     3.24882  -1.93743  -0.13303
H     3.37985  -1.00947   1.36193
H     1.81118  -1.71861   0.89865
