30
Generated by autodE on: 2022-07-27. E = -671.797921 Ha
C     4.61761  -1.24255   1.33212
O     3.32143  -1.13469   1.90659
C     2.31701  -0.69309   1.06599
O     2.55020  -0.48848  -0.13648
C     1.11006  -0.50261   1.76948
N    -0.04985  -0.04382   1.15493
C    -0.79193   0.96973   1.92776
C    -0.49805  -0.49765  -0.01219
C     0.01589  -1.78084  -0.55477
C    -1.48996   0.27236  -0.78689
C    -1.31513   1.65317  -1.00784
C    -2.23644   2.37314  -1.76860
C    -3.34882   1.73046  -2.32127
C    -3.52802   0.35805  -2.11638
C    -2.60333  -0.36783  -1.36564
H     4.97835  -0.27080   0.95727
H     4.63371  -1.96504   0.50050
H     5.28200  -1.59348   2.13294
H     1.11201  -0.49266   2.85737
H    -0.30678   1.95035   1.83897
H    -1.83220   1.02831   1.59402
H    -0.76712   0.66137   2.98147
H     0.27352  -2.46306   0.27345
H    -0.72559  -2.24090  -1.22036
H     0.94807  -1.62578  -1.12539
H    -0.43956   2.15931  -0.59799
H    -2.08021   3.44125  -1.93662
H    -4.07088   2.29572  -2.91500
H    -4.39477  -0.15109  -2.54406
H    -2.75747  -1.43679  -1.20694
