30
Generated by autodE on: 2022-06-22. E = -671.793237 Ha
C     3.73524   2.40559   1.05501
O     2.46990   1.75955   1.03428
C     2.42374   0.52554   0.40512
O     3.46258   0.05228  -0.08807
C     1.11006   0.01636   0.45422
N     0.68200  -1.19926  -0.06861
C     1.67438  -2.28410  -0.22149
C    -0.58864  -1.48508  -0.32211
C    -0.99152  -2.89795  -0.61863
C    -1.63181  -0.43864  -0.28966
C    -1.48392   0.76760  -1.00460
C    -2.51466   1.70448  -1.03351
C    -3.70633   1.46752  -0.33612
C    -3.86357   0.27701   0.37755
C    -2.83970  -0.67362   0.39272
H     4.49017   1.80549   1.58831
H     4.10656   2.60736   0.03714
H     3.58646   3.35687   1.58323
H     0.33209   0.66078   0.84955
H     1.47950  -3.05847   0.53234
H     1.59170  -2.72653  -1.22115
H     2.67314  -1.86703  -0.08888
H    -0.49463  -3.27694  -1.52717
H    -2.07303  -2.95626  -0.78295
H    -0.72501  -3.58536   0.20216
H    -0.55875   0.96428  -1.54923
H    -2.38920   2.62693  -1.60533
H    -4.50900   2.20840  -0.35383
H    -4.78917   0.08244   0.92431
H    -2.97390  -1.60459   0.94758
