53
Generated by autodE on: 2022-06-22. E = -1023.299448 Ha. Imaginary frequency = -352.7 cm-1
C     2.49952  -2.56583   1.28491
O     1.48118  -1.62763   1.62140
C     0.30447  -1.72186   0.92418
O     0.15446  -2.59076   0.06430
C    -0.59706  -0.71395   1.39890
N    -1.88062  -0.43146   0.97623
C    -2.73085   0.08335   2.06151
C    -2.16312  -0.03998  -0.31584
C    -1.47650  -0.75382  -1.45569
C    -3.58579   0.35176  -0.63056
C    -4.15681   1.56549  -0.20841
C    -5.47037   1.89980  -0.54490
C    -6.24860   1.02602  -1.30889
C    -5.69764  -0.18520  -1.73569
C    -4.38068  -0.51351  -1.40675
C    -0.94073   1.73194  -0.35952
C     0.29409   1.42875   0.23900
C     0.63324   1.99156   1.60240
C     1.36801   0.90705  -0.58386
C     2.64164   0.64090  -0.18290
C     3.64219   0.07368  -1.05899
C     4.88663  -0.35069  -0.71789
C     5.44295  -0.29879   0.67693
C     5.81115  -0.93875  -1.74621
H     3.35370  -2.33496   1.93330
H     2.80008  -2.46889   0.23127
H     2.16309  -3.59836   1.46763
H    -0.38982  -0.39237   2.41643
H    -2.55167   1.15699   2.22705
H    -3.78857  -0.07139   1.82634
H    -2.49398  -0.46515   2.97939
H    -1.81566  -1.79895  -1.52230
H    -1.72188  -0.24666  -2.39780
H    -0.39310  -0.77638  -1.33835
H    -3.57412   2.26328   0.39061
H    -5.88583   2.85188  -0.20628
H    -7.27651   1.28780  -1.57076
H    -6.29419  -0.88123  -2.33034
H    -3.97184  -1.46481  -1.74894
H    -1.60181   2.41282   0.17864
H    -0.99823   1.79130  -1.44880
H    -0.27551   2.20297   2.18297
H     1.18754   2.94214   1.48615
H     1.26966   1.32138   2.19616
H     1.11418   0.70127  -1.62970
H     2.91968   0.83080   0.85610
H     3.34080  -0.04392  -2.10731
H     6.36711   0.30592   0.70315
H     5.73153  -1.31179   1.00937
H     4.74303   0.11349   1.41491
H     6.09652  -1.97124  -1.47410
H     5.35949  -0.95718  -2.74916
H     6.75542  -0.36687  -1.80028
