44
Generated by autodE on: 2022-06-21. E = -1009.848012 Ha
C    -0.42950   3.21931   1.04296
N     0.29476   2.08694   0.50163
C     0.25282   1.71867  -0.77837
O    -0.30858   2.32477  -1.69273
C     1.00473   0.39168  -1.11399
C     1.94693   0.72335  -2.20244
N     2.71101   0.97057  -3.03921
C     0.02267  -0.71432  -1.60284
C    -0.15049  -1.66657  -0.41037
C    -0.55225  -3.08270  -0.83398
C    -1.11500  -1.16729   0.64256
C    -1.98683  -0.15208   0.50266
C    -2.91787   0.26764   1.53454
C    -3.75197   1.33387   1.46706
C    -4.66985   1.66430   2.60957
C    -3.83991   2.27200   0.29569
C     1.33156  -1.60295   0.16567
C     2.25298  -2.46307  -0.62841
N     3.00494  -3.06020  -1.27823
C     1.41861  -2.04636   1.56945
N     1.49165  -2.39316   2.67244
N     1.67899  -0.19309   0.05023
C     3.05366   0.19656   0.34259
H     0.24202   3.84928   1.64503
H    -0.83336   3.81657   0.21729
H    -1.25880   2.87940   1.68146
H     0.71517   1.41464   1.13947
H    -0.91820  -0.29268  -1.96987
H     0.48442  -1.26100  -2.43475
H    -1.56539  -3.05344  -1.25936
H     0.12945  -3.49345  -1.59286
H    -0.56420  -3.75799   0.03511
H    -1.11689  -1.73779   1.57754
H    -2.01938   0.40570  -0.43439
H    -2.92863  -0.33645   2.44903
H    -4.58419   0.94186   3.43437
H    -4.45315   2.67334   3.00328
H    -5.72102   1.68720   2.27107
H    -4.85033   2.23325  -0.14845
H    -3.69300   3.31166   0.63510
H    -3.10714   2.07008  -0.49558
H     3.77906  -0.21603  -0.38149
H     3.12617   1.29196   0.32741
H     3.32242  -0.14881   1.35101
