23
Generated by autodE on: 2022-06-21. E = -351.521380 Ha
C     3.53616   0.39246  -1.28091
C     2.54020  -0.05439  -0.48449
C     2.81598  -0.99199   0.66312
C     1.16348   0.37079  -0.72951
C     0.07834  -0.00556  -0.00713
C    -1.26744   0.44733  -0.29479
C    -2.40164   0.11807   0.37373
C    -2.45200  -0.80228   1.56012
C    -3.73212   0.67331  -0.04982
H     4.57487   0.09048  -1.12045
H     3.33287   1.07296  -2.11355
H     2.49343  -0.55276   1.62178
H     2.25887  -1.93655   0.54712
H     3.88679  -1.22922   0.73486
H     1.01669   1.05354  -1.57512
H     0.21607  -0.68641   0.83724
H    -1.36439   1.12990  -1.14780
H    -3.11297  -1.66144   1.34849
H    -1.47079  -1.19205   1.85988
H    -2.89549  -0.28287   2.42793
H    -3.64674   1.34054  -0.92004
H    -4.20292   1.23527   0.77683
H    -4.43395  -0.14201  -0.30199
