21
Generated by autodE on: 2022-07-27. E = -658.267649 Ha
C     4.13284  -1.00431   0.74979
N     2.94996  -0.38693   0.18005
C     1.72677  -0.65631   0.66599
O     1.52451  -1.41015   1.61966
C     0.58558  -0.00677  -0.06882
C     0.74919   0.28580  -1.44306
N     0.96890   0.56438  -2.55424
N    -0.58417   0.24175   0.54283
C    -0.63722   0.34788   2.02157
C    -1.77031   0.42401  -0.11343
C    -1.97485  -0.01835  -1.44039
N    -2.20634  -0.41040  -2.51418
C    -2.88753   0.98718   0.54869
N    -3.84236   1.44149   1.04072
H     4.99468  -0.76975   0.11416
H     4.32865  -0.63316   1.76891
H     4.00945  -2.09607   0.80256
H     3.06484   0.30311  -0.55628
H     0.35909   0.55047   2.41460
H    -1.30277   1.18177   2.27072
H    -1.03846  -0.58538   2.43399
