21
Generated by autodE on: 2022-06-21. E = -658.267056 Ha
C     3.17165   0.35645   0.69733
N     2.50316   0.48764  -0.58734
C     1.25654   0.11702  -0.90511
O     0.70844   0.37217  -1.97930
C     0.51551  -0.74966   0.09092
C     1.17814  -1.91049   0.55282
N     1.80255  -2.83333   0.89789
N    -0.78572  -0.57368   0.34487
C    -1.58558  -1.68449   0.91266
C    -1.46793   0.58706   0.10614
C    -0.81317   1.81756  -0.11967
N    -0.30401   2.85656  -0.26585
C    -2.87986   0.60234   0.17590
N    -4.04413   0.65750   0.22294
H     2.43856   0.34201   1.51411
H     3.82260   1.22875   0.84315
H     3.78791  -0.55427   0.75215
H     3.00380   0.96359  -1.33577
H    -0.93382  -2.53410   1.12824
H    -2.07535  -1.33959   1.83040
H    -2.33697  -1.98022   0.16905
