44
Generated by autodE on: 2022-06-21. E = -1009.784034 Ha. Imaginary frequency = -308.2 cm-1
C     4.65984  -3.03797   0.39715
N     3.58056  -2.15566  -0.01035
C     2.32855  -2.60965  -0.13875
O     2.00207  -3.77175   0.09703
C     1.30840  -1.59459  -0.69306
C     1.62142  -1.34023  -2.07746
N     2.00813  -1.15867  -3.15872
C     1.80792   0.34189   0.01819
C     0.71098   1.22100  -0.13099
C     0.55609   2.00784  -1.40369
C    -0.09366   1.52509   1.01642
C    -1.11263   2.43674   1.06033
C    -1.83513   2.74910   2.26428
C    -2.84733   3.65001   2.39367
C    -3.51095   3.86754   3.72144
C    -3.39264   4.47858   1.26838
C    -0.98010  -0.91738  -0.87655
C    -1.05079  -0.58887  -2.24714
N    -1.20837  -0.25443  -3.35603
C    -2.09979  -0.52108  -0.12331
N    -3.01625  -0.10132   0.46918
N    -0.00447  -1.73942  -0.31296
C    -0.26816  -2.14573   1.07602
H     4.75851  -3.88471  -0.29935
H     5.59536  -2.46679   0.40268
H     4.48035  -3.44190   1.40540
H     3.79200  -1.18389  -0.20820
H     2.06284   0.02577   1.03247
H     2.65134   0.49236  -0.66081
H     0.95801   3.02635  -1.26164
H     1.10695   1.54210  -2.23130
H    -0.49520   2.11532  -1.70522
H     0.15322   0.98536   1.93711
H    -1.38362   2.96742   0.14464
H    -1.53033   2.19706   3.16085
H    -3.07920   3.23656   4.51166
H    -3.42697   4.92509   4.02977
H    -4.59318   3.65559   3.65390
H    -2.88393   4.31617   0.30982
H    -3.32566   5.55177   1.51898
H    -4.46706   4.26421   1.12906
H    -1.29999  -2.50627   1.14935
H    -0.12959  -1.28872   1.75235
H     0.40637  -2.95459   1.35691
