34
Generated by autodE on: 2022-06-17. E = -728.352941 Ha
C    -0.96200   3.62575  -0.20090
C    -1.35999   2.57360   0.52372
C    -2.79743   2.27137   0.84255
C    -0.38795   1.56418   1.08316
O     0.99291   2.01586   0.95381
N     1.68336   1.19985   0.08773
C     0.94361   0.22176  -0.28295
C     1.41154  -0.80678  -1.25647
O     0.61628  -1.63264  -1.72193
N     2.71375  -0.76846  -1.58311
C     3.28344  -1.68645  -2.54848
C    -0.42988   0.20109   0.33931
C    -0.62849  -0.98781   1.24030
C    -1.46380  -2.02250   1.03817
C    -1.54082  -3.15138   2.03029
C    -2.35322  -2.17892  -0.16416
H    -1.69020   4.33270  -0.60854
H     0.09533   3.81232  -0.40056
H    -3.47371   3.01151   0.39217
H    -3.08427   1.26993   0.47822
H    -2.95948   2.26375   1.93421
H    -0.57234   1.42712   2.16017
H     3.29264  -0.04123  -1.17512
H     3.11905  -2.73156  -2.24316
H     4.36227  -1.50340  -2.61812
H     2.83512  -1.55157  -3.54631
H    -1.18357   0.21196  -0.45879
H    -0.00333  -0.98579   2.14080
H    -1.30109  -4.11267   1.54240
H    -2.56614  -3.25356   2.42705
H    -0.85151  -3.00870   2.87541
H    -2.39075  -1.28791  -0.80404
H    -2.00145  -3.02198  -0.78414
H    -3.38139  -2.42695   0.14885
