23
Generated by autodE on: 2022-06-17. E = -351.521386 Ha
C     2.06480   3.03526   0.90709
C     1.80829   1.79898   0.42593
C     2.90438   0.94032  -0.15160
C     0.44596   1.27074   0.45948
C     0.05981   0.04990   0.01092
C    -1.30760  -0.42526   0.06758
C    -1.77353  -1.62643  -0.35872
C    -0.92093  -2.69631  -0.97969
C    -3.22947  -1.97540  -0.23134
H     1.26695   3.65656   1.32560
H     3.07465   3.45473   0.89442
H     2.69103   0.67602  -1.20071
H     3.87450   1.45573  -0.11583
H     2.99660  -0.01041   0.39940
H    -0.31460   1.93448   0.88811
H     0.81276  -0.61752  -0.41696
H    -2.03286   0.27202   0.50431
H    -0.98426  -3.62653  -0.38773
H    -1.29850  -2.94893  -1.98630
H     0.13761  -2.42116  -1.07111
H    -3.81251  -1.16544   0.23100
H    -3.36121  -2.89044   0.37377
H    -3.66634  -2.19952  -1.22118
