11
Generated by autodE on: 2022-06-17. E = -376.771677 Ha
C    -2.88486  -0.20276  -0.63211
N    -1.61049   0.26470  -0.12157
C    -0.45530  -0.39062  -0.31470
O    -0.31199  -1.44909  -0.92350
C     0.71204   0.27108   0.28636
N     1.77275   0.58318   0.66181
O     2.85006   0.93878   1.06621
H    -3.61311  -0.30140   0.18677
H    -3.28872   0.49994  -1.37748
H    -2.74361  -1.18091  -1.10532
H    -1.58034   1.14090   0.39328
