34
Generated by autodE on: 2022-06-17. E = -728.275568 Ha. Imaginary frequency = -422.0 cm-1
C    -1.41449   2.71969  -0.97375
C    -1.58126   2.57956   0.35956
C    -1.99172   3.73905   1.23140
C    -1.34232   1.31968   1.06375
O     1.06606   1.90357   1.58349
N     1.40390   1.17015   0.65985
C     0.92232   0.37014  -0.12326
C     1.29558  -0.40315  -1.32655
O     0.54203  -0.44158  -2.30302
N     2.47245  -1.04422  -1.25971
C     2.96691  -1.82630  -2.37802
C    -1.09434   0.09150   0.46354
C    -0.98432  -1.12477   1.27588
C    -0.98349  -2.40537   0.84180
C    -0.83796  -3.54293   1.81401
C    -1.10824  -2.81862  -0.59776
H    -1.59867   3.68112  -1.46081
H    -1.07690   1.89816  -1.61083
H    -2.16325   4.65205   0.64388
H    -2.91149   3.50535   1.79353
H    -1.20743   3.94657   1.97919
H    -1.43124   1.34857   2.15271
H     3.02424  -0.97412  -0.41019
H     2.27484  -2.64887  -2.61740
H     3.94238  -2.24723  -2.10811
H     3.08205  -1.20281  -3.27809
H    -1.33712  -0.01909  -0.59668
H    -0.86886  -0.95023   2.35180
H     0.04526  -4.15774   1.56379
H    -1.70828  -4.22083   1.75832
H    -0.73473  -3.19271   2.85153
H    -1.28515  -1.98312  -1.28455
H    -0.18738  -3.33359  -0.92479
H    -1.92749  -3.54910  -0.71506
