49
Generated by autodE on: 2022-06-23. E = -1216.144665 Ha
C    -0.65136   2.08781  -4.61319
N    -0.60151   1.93885  -3.17383
C    -1.59823   1.38515  -2.47223
O    -2.64052   0.96353  -2.99238
C    -1.40681   1.30817  -0.95588
N    -0.06652   1.70959  -0.49299
C     0.74114   0.51278  -0.23898
C     1.13212   0.47736   1.26500
O     0.64642   1.29212   2.05691
N     2.01125  -0.46404   1.62703
C     2.26818  -0.76989   3.02158
C     2.04391   0.50363  -1.05794
O     2.69343  -0.53691  -1.22775
N     2.44341   1.69380  -1.52001
C     3.66220   1.85639  -2.28731
C    -0.19753  -0.70719  -0.64973
C    -1.60634  -0.12313  -0.44388
C    -2.04628  -0.13699   1.03116
C    -1.50201  -1.31689   1.79645
C    -1.89414  -1.58429   3.18541
N    -2.86679  -0.79508   3.70727
O    -1.36621  -2.47536   3.88672
C    -0.58194  -2.15466   1.23566
N     0.00306  -1.96327   0.02930
C     0.77726  -3.01371  -0.61155
H    -0.83812   1.11980  -5.10414
H     0.30942   2.48317  -4.96481
H    -1.45222   2.78046  -4.91927
H     0.21185   2.24348  -2.64998
H    -2.16032   1.98736  -0.52961
H    -0.15102   2.20263   0.39710
H     2.34025  -1.10540   0.91100
H     3.11590  -1.46317   3.08476
H     1.38685  -1.23892   3.49185
H     2.51259   0.14491   3.57972
H     1.83081   2.48413  -1.33794
H     4.54153   1.53780  -1.70564
H     3.63151   1.25846  -3.21177
H     3.77597   2.91421  -2.55303
H    -0.03767  -0.88072  -1.72206
H    -2.32557  -0.67649  -1.06020
H    -3.14955  -0.13938   1.04993
H    -1.73681   0.79973   1.52376
H    -3.32959  -0.07059   3.17363
H    -3.14446  -0.94158   4.67129
H    -0.25996  -3.04359   1.78183
H     0.23176  -3.44534  -1.46949
H     1.73573  -2.61898  -0.97122
H     0.96759  -3.81523   0.11458
