29
Generated by autodE on: 2022-06-23. E = -758.368382 Ha
C     3.71319   2.52920   0.44439
N     3.84832   1.08851   0.57552
C     2.85691   0.17875   0.47805
O     3.05925  -1.04553   0.60440
C     1.50296   0.68419   0.21568
N     0.57634  -0.24650   0.10927
C    -0.74351  -0.31845  -0.14539
C    -1.64438   0.82946  -0.29331
O    -2.77639   0.70594  -0.80789
N    -1.22510   2.03938   0.15413
C    -2.10558   3.19194   0.11151
C    -1.18889  -1.73104  -0.22884
O    -0.37244  -2.64764   0.00917
N    -2.46624  -1.97094  -0.56132
C    -2.98017  -3.31764  -0.68209
H     3.35741   2.82054  -0.55657
H     4.69931   2.98313   0.59967
H     3.02386   2.94579   1.19520
H     4.77165   0.70218   0.74962
H     1.27385   1.73332   0.06463
H     0.96164  -1.20944   0.22938
H    -0.43326   2.08535   0.78565
H    -1.53737   4.08099   0.41216
H    -2.48849   3.34297  -0.90761
H    -2.97156   3.07771   0.78557
H    -3.02988  -1.15199  -0.79599
H    -2.48274  -3.87435  -1.49411
H    -2.83442  -3.88633   0.24990
H    -4.05447  -3.26945  -0.89905
