41
Generated by autodE on: 2022-10-21. E = -1491.223300 Ha
C     1.86608  -3.74203  -1.02786
N     1.51057  -2.55469  -0.28016
C     1.51526  -1.33678  -0.83288
O     1.90087  -1.11256  -1.98409
C     0.91646  -0.22083   0.05406
C     1.83590   1.01882   0.02341
O     2.95334   1.05754  -0.44573
O     1.29147   2.02558   0.70094
C     2.07423   3.21920   0.84485
N     0.74469  -0.67111   1.43750
C     1.93097  -0.67842   2.28141
C    -0.39494   0.00306   2.04334
C    -1.37989   0.25927   0.90498
Cl   -2.19842   1.84493   1.14890
C    -2.43304  -0.87867   0.70950
C    -3.37680  -0.46638  -0.40926
C    -2.66384  -0.59090  -1.53418
C    -1.29822  -1.09077  -1.09453
O    -1.61343  -1.86497   0.07012
C    -0.54943   0.14058  -0.43812
O    -0.62341   1.30625  -1.19984
C    -0.11477   1.25951  -2.52855
H     1.98591  -4.58280  -0.33315
H     2.81187  -3.58602  -1.56623
H     1.09046  -4.00197  -1.76864
H     1.05426  -2.62178   0.62701
H     1.45184   3.91762   1.41553
H     3.00558   3.00398   1.38781
H     2.31235   3.63945  -0.14267
H     2.25959   0.34048   2.56921
H     2.76294  -1.18144   1.77078
H     1.71217  -1.23175   3.20702
H    -0.83650  -0.62505   2.83312
H    -0.10285   0.96299   2.50186
H    -2.86483  -1.25169   1.64431
H    -4.38282  -0.07241  -0.27353
H    -2.93746  -0.32316  -2.55400
H    -0.72278  -1.67196  -1.81967
H    -0.33245   2.24000  -2.97310
H     0.97011   1.08085  -2.54921
H    -0.60697   0.47939  -3.13265
