17
Generated by autodE on: 2022-10-21. E = -881.716874 Ha
C     2.77119   0.02182  -0.71479
O     1.58679  -0.58012  -1.24608
C     0.45607  -0.47798  -0.54364
C     0.06414   0.07552   0.61978
Cl    0.87557   1.05375   1.79644
C    -1.47034  -0.12088   0.64466
C    -2.07756   0.77569  -0.46176
C    -1.68320   0.21488  -1.60877
C    -0.85167  -1.01464  -1.17468
O    -1.56360  -1.41064   0.01002
H     3.57346  -0.19357  -1.43150
H     3.02355  -0.41262   0.26435
H     2.64505   1.11027  -0.61579
H    -1.94037  -0.10179   1.63393
H    -2.64500   1.68951  -0.28866
H    -1.83351   0.53939  -2.63764
H    -0.72632  -1.83236  -1.89305
