41
Generated by autodE on: 2022-10-21. E = -1491.140046 Ha. Imaginary frequency = -220.1 cm-1
C     2.77064  -2.13456  -2.54922
N     2.66339  -1.15263  -1.49309
C     1.84711  -1.37629  -0.42172
O     1.38515  -2.52227  -0.23090
C     1.55263  -0.23562   0.45571
C     2.04423   1.08455   0.15832
O     2.55851   1.44326  -0.91372
O     1.92476   1.98775   1.16557
C     2.32695   3.32718   0.88006
N     0.85698  -0.47786   1.66984
C     0.99648  -1.75914   2.38412
C    -0.08231   0.35714   2.08844
C    -1.77612   0.36826   0.64130
Cl   -2.55550   1.85598   1.13897
C    -2.50520  -0.98181   0.80735
C    -3.59116  -1.07768  -0.29061
C    -2.91779  -1.21289  -1.43838
C    -1.42568  -1.20731  -1.02674
O    -1.49672  -1.83954   0.25796
C    -1.16287   0.24756  -0.59763
O    -0.79965   1.24635  -1.38104
C    -0.19438   0.91526  -2.64369
H     3.49964  -1.78050  -3.29040
H     3.11578  -3.10423  -2.16023
H     1.80859  -2.30762  -3.06604
H     2.86457  -0.17346  -1.69390
H     2.12685   3.90215   1.79283
H     3.39812   3.37699   0.63412
H     1.74643   3.74206   0.04244
H     0.78894  -1.58148   3.44690
H     2.02232  -2.12631   2.27561
H     0.30341  -2.50880   1.98961
H    -0.59149   0.11224   3.02290
H    -0.02514   1.39879   1.80051
H    -2.78181  -1.26535   1.82798
H    -4.66442  -1.00235  -0.12039
H    -3.28080  -1.25971  -2.46413
H    -0.70244  -1.69244  -1.68641
H     0.65001   0.23177  -2.49227
H     0.16025   1.86050  -3.06942
H    -0.94107   0.46004  -3.31109
