40
Generated by autodE on: 2022-06-18. E = -915.440172 Ha
C    -1.84555   2.93859   0.92352
C    -1.35625   2.45392  -0.40159
O    -0.92365   3.18503  -1.27136
C    -1.40722   0.92739  -0.69137
C    -2.05470   0.78323  -2.01854
N    -2.61286   0.63042  -3.02548
N    -2.05259   0.12659   0.33060
C    -1.52885  -1.26716   0.33203
C    -1.11198  -1.65777   1.75269
C    -2.58761  -2.24325  -0.19016
C    -0.31249  -1.17672  -0.65727
C     0.02438   0.32072  -0.75243
C     0.93321   0.82318   0.37958
C     2.05147  -0.15344   0.64116
C     3.28308   0.23472   1.33510
N     3.36265   1.52465   1.75660
O     4.22951  -0.55265   1.54917
C     1.91166  -1.46549   0.28387
N     0.84191  -1.99640  -0.35000
C     0.75719  -3.41963  -0.62480
H    -1.32297   2.42159   1.74120
H    -1.70308   4.02437   0.99598
H    -2.91413   2.68818   1.02799
H    -3.06791   0.16664   0.27561
H    -0.33369  -0.99085   2.14750
H    -0.73556  -2.69053   1.78906
H    -1.98549  -1.59309   2.41984
H    -2.91581  -1.96114  -1.20251
H    -3.46822  -2.24448   0.47235
H    -2.19168  -3.26890  -0.22938
H    -0.67477  -1.49860  -1.64520
H     0.49436   0.54760  -1.71780
H     1.33224   1.80623   0.08499
H     0.34601   0.98694   1.29808
H     2.59613   2.17829   1.66220
H     4.18604   1.81390   2.27235
H     2.72346  -2.16368   0.49774
H     0.35623  -3.58486  -1.63712
H     0.10151  -3.94322   0.09146
H     1.75872  -3.86635  -0.56705
