20
Generated by autodE on: 2022-06-18. E = -457.696465 Ha
C    -2.97227  -0.45406  -0.41429
C    -1.62601  -0.80734   0.17003
O    -1.48175  -1.80661   0.90657
C    -0.50299   0.03035  -0.14393
C    -0.61023   1.15560  -0.97432
N    -0.78072   2.07770  -1.67704
N     0.68942  -0.40277   0.44780
C     1.91502   0.03027   0.45743
C     2.31837   1.26220  -0.27639
C     2.93348  -0.73469   1.22798
H    -2.94223  -0.50585  -1.51460
H    -3.72797  -1.15664  -0.03987
H    -3.26197   0.57403  -0.14600
H     0.47902  -1.25837   0.98457
H     1.74279   2.13270   0.07674
H     2.12410   1.15573  -1.35569
H     3.38692   1.45955  -0.12775
H     3.39673  -0.07609   1.98192
H     2.50597  -1.61563   1.72692
H     3.74340  -1.05546   0.55107
