40
Generated by autodE on: 2022-06-18. E = -915.368375 Ha. Imaginary frequency = -490.0 cm-1
C    -2.01457   1.81507   1.69431
C    -1.35014   1.98697   0.35067
O    -0.59396   2.94698   0.15666
C    -1.65696   1.08317  -0.76462
C    -1.73370   1.74717  -2.02233
N    -1.78045   2.27540  -3.06193
N    -2.39099  -0.09950  -0.67280
C    -1.87752  -1.24800  -0.09925
C    -1.39888  -1.20370   1.32755
C    -2.67148  -2.47713  -0.46408
C    -0.01938  -1.38389  -1.06574
C     0.33923  -0.04094  -1.32774
C     1.47452   0.64833  -0.62573
C     2.05895  -0.19951   0.48281
C     3.05738   0.32854   1.41701
N     3.42237   1.62549   1.24032
O     3.56856  -0.34837   2.33495
C     1.74401  -1.52473   0.57002
N     0.84041  -2.15400  -0.22163
C     0.63033  -3.58688  -0.10122
H    -1.27487   1.50225   2.44675
H    -2.38479   2.80662   1.99626
H    -2.84522   1.10225   1.68132
H    -2.92052  -0.30016  -1.51895
H    -0.65709  -0.41832   1.50562
H    -0.95273  -2.16507   1.60440
H    -2.25800  -1.03709   1.99675
H    -2.92485  -2.48652  -1.53532
H    -3.61109  -2.50383   0.11477
H    -2.11247  -3.38945  -0.22659
H    -0.41306  -1.96187  -1.90550
H     0.09730   0.33432  -2.31931
H     2.24901   0.88866  -1.38364
H     1.14247   1.63450  -0.25540
H     3.02179   2.21473   0.52196
H     4.09384   2.03094   1.88253
H     2.24475  -2.15236   1.30976
H    -0.13391  -3.84685   0.65056
H     1.57283  -4.07241   0.18499
H     0.31222  -3.99571  -1.07090
