18
Generated by autodE on: 2022-05-31. E = -559.518300 Ha
C     2.88112  -0.05603   0.29259
C     1.73301   0.73674  -0.27622
O     1.88581   1.86669  -0.74027
C     0.40765   0.12848  -0.25772
C    -0.06843  -0.99680   0.30618
F     0.55904  -1.92694   0.99564
C    -1.59171  -1.00504   0.10363
C    -2.15431   0.12873   0.99285
C    -1.71750   1.25440   0.42061
C    -0.88378   0.79324  -0.79507
O    -1.63411  -0.38007  -1.18882
H     2.95651  -1.03647  -0.20333
H     3.81782   0.50205   0.16531
H     2.70818  -0.24984   1.36373
H    -2.08394  -1.98276   0.13229
H    -2.73016  -0.02096   1.90489
H    -1.84359   2.28960   0.73532
H    -0.74684   1.49910  -1.61975
