41
Generated by autodE on: 2022-05-31. E = -1184.964204 Ha. Imaginary frequency = -358.6 cm-1
C    -3.15371  -3.43599  -1.02172
N    -2.49356  -2.24217  -0.53794
C    -1.80450  -1.44496  -1.37360
O    -1.73354  -1.67088  -2.58929
C    -1.12328  -0.25088  -0.75679
C    -0.72548   0.84527  -1.67829
O    -0.27047   0.69587  -2.79437
O    -0.91393   2.05381  -1.12020
C    -0.62201   3.21361  -1.91208
N    -1.39632   0.14218   0.52160
N    -1.47035  -0.75625   1.47073
C    -1.64995  -0.20034   2.79824
C     0.37055  -1.83368   1.12955
C     1.53621  -1.23964   1.95446
O     2.64286  -1.44402   1.04292
C     2.02221  -0.71886  -0.06337
C     1.75750   0.63953   0.60851
C     1.92894   1.99338   0.06735
C     2.64370   2.10847  -1.25219
O     1.54747   2.97998   0.69330
C     1.45541   0.27897   1.87070
F     1.14534   1.03920   2.90099
C     0.69889  -1.51506  -0.19002
H    -3.66692  -3.92113  -0.18203
H    -2.43482  -4.15069  -1.45653
H    -3.89698  -3.19631  -1.79816
H    -2.39375  -2.05127   0.46317
H    -0.63536   4.06222  -1.21935
H    -1.39573   3.33864  -2.68398
H     0.36020   3.12767  -2.39172
H    -1.11781   1.10432   0.75989
H    -1.20871   0.80341   2.91810
H    -2.72784  -0.13562   3.02675
H    -1.19533  -0.88487   3.52752
H    -0.12831  -2.74179   1.45749
H     1.71291  -1.66379   2.94786
H     2.66528  -0.70792  -0.94738
H     2.69940   3.15950  -1.56176
H     3.66185   1.69657  -1.15084
H     2.13439   1.51072  -2.02353
H     0.53631  -2.15944  -1.05175
