52
Generated by autodE on: 2022-06-24. E = -1130.724198 Ha
C     5.35940  -0.22727   1.06984
C     4.41263  -0.36003   0.11910
C     4.75607  -0.71106  -1.30414
C     3.00313  -0.15579   0.46948
C     1.96615  -0.25722  -0.38164
C     0.54953  -0.03657   0.03506
C    -0.20680   1.05893  -0.78275
C     0.13473   1.04528  -2.23319
N     0.30097   0.99833  -3.38111
C     0.24016   2.44283  -0.23464
O     1.09120   3.10531  -0.83421
N    -0.31647   2.79220   0.92683
C     0.06844   4.00581   1.62030
N    -1.58510   0.71900  -0.59254
C    -2.63650   1.65132  -0.93442
C    -1.82808  -0.56519   0.02135
C    -2.80187  -1.46366  -0.77704
C    -3.14552  -1.08791  -2.19309
O    -3.24049  -2.48376  -0.27648
C    -2.30248  -0.33506   1.49893
C    -3.11706  -1.33981   2.25786
O    -2.01023   0.72536   2.02981
C    -0.39182  -1.27698  -0.00916
C    -0.12237  -2.18280   1.19199
C    -0.17522  -2.10132  -1.28983
H     5.09436   0.02930   2.10003
H     6.41966  -0.37125   0.84377
H     4.25938  -1.64617  -1.61226
H     5.84037  -0.83508  -1.43379
H     4.40952   0.07219  -1.99869
H     2.80055   0.10189   1.51555
H     2.14202  -0.50743  -1.43067
H     0.54403   0.32276   1.07173
H    -0.98220   2.13684   1.35118
H     1.11843   3.96457   1.95391
H    -0.57633   4.13273   2.49866
H    -0.04469   4.88426   0.96636
H    -3.60053   1.26456  -0.58047
H    -2.71422   1.81244  -2.02472
H    -2.48378   2.63248  -0.45697
H    -4.02745  -0.42711  -2.17417
H    -2.33862  -0.54748  -2.70083
H    -3.41443  -2.00000  -2.74223
H    -2.72780  -2.35909   2.16772
H    -3.16391  -1.02641   3.30911
H    -4.13560  -1.35260   1.83754
H     0.90893  -2.56097   1.12809
H    -0.79965  -3.04886   1.19146
H    -0.22190  -1.65269   2.15042
H    -0.31117  -1.51879  -2.20939
H    -0.84942  -2.96767  -1.32193
H     0.85194  -2.49216  -1.29114
