23
Generated by autodE on: 2022-06-24. E = -351.521383 Ha
C     3.47041  -0.73011   1.31183
C     2.52676  -0.35807   0.41913
C     2.89375   0.05129  -0.98439
C     1.11784  -0.34926   0.80763
C     0.07851  -0.00321   0.00706
C    -1.30283  -0.01466   0.44365
C    -2.39578   0.30707  -0.29367
C    -3.77260   0.24434   0.30482
C    -2.35209   0.74198  -1.73105
H     3.20028  -1.02686   2.33002
H     4.53155  -0.74662   1.04807
H     2.40328  -0.59775  -1.72881
H     3.98008  -0.00071  -1.14341
H     2.56141   1.08087  -1.19772
H     0.90382  -0.65301   1.83949
H     0.28374   0.30025  -1.02316
H    -1.46752  -0.31949   1.48426
H    -3.75475  -0.07621   1.35679
H    -4.26958   1.22952   0.24771
H    -4.41443  -0.45362  -0.26245
H    -2.80812   1.74168  -1.84192
H    -1.33858   0.78010  -2.15038
H    -2.95676   0.05998  -2.35471
