29
Generated by autodE on: 2022-07-27. E = -779.148940 Ha
C     3.34992   3.25642  -0.14255
N     2.68707   1.96624  -0.10193
C     1.36245   1.87027   0.08537
O     0.62758   2.84791   0.25450
C     0.80197   0.47464   0.01365
C     1.38753  -0.42677  -0.90858
N     1.94010  -1.13739  -1.65174
N    -0.26972   0.07935   0.72794
C    -0.53275   0.72651   2.03193
C    -1.08544  -0.90202   0.23770
C    -1.34779  -0.94670  -1.21695
C    -1.32705   0.34038  -2.02307
O    -1.69995  -1.98595  -1.76938
C    -1.68310  -1.86831   1.18283
C    -2.77891  -2.78883   0.71479
O    -1.28084  -1.92473   2.34530
H     3.27920   3.77077   0.82898
H     2.89248   3.90407  -0.90569
H     4.40679   3.10195  -0.38857
H     3.24538   1.12262  -0.19568
H    -0.35022   1.79790   1.91247
H     0.14510   0.30922   2.78575
H    -1.57358   0.55722   2.31437
H    -1.15071   1.25394  -1.44304
H    -0.57175   0.26464  -2.82019
H    -2.31119   0.40634  -2.51230
H    -3.52382  -2.26723   0.09771
H    -2.35074  -3.59045   0.09453
H    -3.25362  -3.23137   1.60061
