67
Generated by autodE on: 2022-07-04. E = -2147.490805 Ha
C     6.71670 -10.57946   8.69626
N     6.51313 -10.71567   7.26675
C     6.60507  -9.66375   6.44678
O     7.00910  -8.55908   6.82301
C     6.14883  -9.93671   4.98492
C     6.90739  -9.13981   3.86666
O     6.58596  -9.32063   2.69245
N     7.93068  -8.37278   4.25143
C     8.61535  -7.52515   3.29374
N     6.52987 -11.29489   4.62193
C     5.46637 -11.91496   4.24975
C     5.58336 -13.22863   3.56068
C     5.98989 -14.38555   4.24131
C     6.13331 -15.58921   3.55133
C     5.88523 -15.64609   2.17455
C     5.50612 -14.49044   1.48753
C     5.35729 -13.28374   2.17726
C     4.21730 -11.12478   4.46884
C     4.60490  -9.86630   4.82886
C     3.73636  -8.60531   5.04734
C     3.51038  -8.36307   6.60782
F     2.21485  -8.23479   6.92181
F     4.11795  -7.25081   7.05455
F     3.98796  -9.37528   7.34170
C     4.40655  -7.31999   4.46498
F     4.59522  -7.43429   3.14291
F     3.62093  -6.24661   4.65809
F     5.59633  -7.02371   4.99977
C     2.32196  -8.64637   4.37800
C     2.14715  -8.87028   2.86774
C     2.79503 -10.08150   2.19608
C     2.40870 -11.45677   2.74256
C     2.85361 -11.74837   4.20204
C     2.91279 -13.29226   4.54220
C     2.21742 -14.25916   3.63716
O     3.44369 -13.62859   5.58111
C     1.81845 -11.39234   5.28808
O     2.10091 -11.21618   6.45209
O     0.56761 -11.43737   4.83252
C    -0.47473 -11.20775   5.79656
H     7.67305 -10.07794   8.90109
H     6.73216 -11.57805   9.14932
H     5.91028  -9.98700   9.15937
H     6.09600 -11.57109   6.91325
H     7.95816  -8.13241   5.24381
H     7.94893  -6.73224   2.91349
H     9.48005  -7.05941   3.78234
H     8.96553  -8.11726   2.43666
H     6.16920 -14.34066   5.31686
H     6.43795 -16.48926   4.09023
H     5.99457 -16.59151   1.63817
H     5.32668 -14.52387   0.41065
H     5.07800 -12.37514   1.64074
H     1.85367  -7.68156   4.60749
H     1.71004  -9.35372   4.92909
H     2.46257  -7.96803   2.32561
H     1.05536  -8.93814   2.72608
H     3.88970  -9.97346   2.19207
H     2.49273 -10.06381   1.13646
H     1.32482 -11.60655   2.66557
H     2.87793 -12.20901   2.09752
H     1.19325 -13.91785   3.42588
H     2.20189 -15.24842   4.11083
H     2.74728 -14.32001   2.67498
H    -0.45261 -11.98681   6.57156
H    -0.34548 -10.22044   6.26247
H    -1.41511 -11.24847   5.23616
