30
Generated by autodE on: 2022-07-04. E = -780.169398 Ha
C    -1.57124   3.21926   2.35322
N    -1.10987   2.11003   1.54452
C    -1.98255   1.29473   0.90152
O    -3.21695   1.48684   1.00379
C    -1.43357   0.20346   0.10197
N    -0.10561   0.04337   0.03205
C     1.03774  -0.16039  -0.07995
C     2.42147  -0.40843  -0.21339
C     3.35966   0.48401   0.34960
C     4.71877   0.21812   0.20514
C     5.15066  -0.91574  -0.49326
C     4.21598  -1.79584  -1.05170
C     2.85144  -1.55530  -0.91699
C    -2.20297  -0.78311  -0.67295
O    -1.63158  -1.67778  -1.32893
N    -3.54742  -0.66420  -0.63268
C    -4.41008  -1.57045  -1.35544
H    -0.69954   3.72426   2.78753
H    -2.13911   3.95180   1.75627
H    -2.22376   2.87878   3.17336
H    -0.11221   1.96196   1.45083
H     3.01281   1.36671   0.88885
H     5.44821   0.90450   0.64012
H     6.21890  -1.11416  -0.60279
H     4.55297  -2.68021  -1.59647
H     2.11277  -2.23430  -1.34539
H    -3.91529   0.10311  -0.06769
H    -4.21854  -1.54095  -2.44129
H    -5.45460  -1.28286  -1.18000
H    -4.27680  -2.61454  -1.02557
