27
Generated by autodE on: 2022-05-25. E = -768.875192 Ha
C     3.66863   0.59741  -1.22281
O     2.59920   0.02699  -0.44220
C     1.49253   0.74043  -0.32404
O     1.29546   1.83290  -0.79594
C     0.40194  -0.04010   0.45499
C     1.00560  -0.85695   1.53433
N     1.43134  -1.49386   2.40459
O    -0.54233   0.84528   0.98722
C    -1.88565   0.61014   0.43076
C    -2.80672   0.23740   1.58671
C    -2.31989   1.89461  -0.26536
C    -1.68385  -0.53690  -0.53869
C    -2.77657  -1.12585  -1.36036
C    -0.40457  -0.89509  -0.50302
F     0.21011  -1.86113  -1.18522
H     3.33083   0.76369  -2.25518
H     4.48164  -0.13613  -1.19714
H     3.99203   1.54811  -0.77707
H    -3.83170   0.07271   1.22297
H    -2.82851   1.05384   2.32420
H    -2.45306  -0.68018   2.08000
H    -3.32291   1.77400  -0.70055
H    -2.35503   2.71961   0.46212
H    -1.61043   2.15457  -1.06381
H    -2.40387  -1.94960  -1.98439
H    -3.58288  -1.50950  -0.71447
H    -3.22257  -0.36075  -2.01633
