20
Generated by autodE on: 2022-07-26. E = -552.779904 Ha
C     3.02759   1.04761  -1.14228
O     2.09926   0.03546  -0.74668
C     0.91643   0.46867  -0.23705
O     0.62711   1.66336  -0.16021
C     0.09634  -0.61717   0.19292
C     0.55478  -1.92068   0.41081
N     0.93079  -3.01930   0.57000
O    -1.12479  -0.33158   0.83312
C    -2.05633   0.39365   0.33109
C    -3.18966   0.66986   1.23206
C    -2.01657   0.88413  -1.05047
H     2.60641   1.67941  -1.93872
H     3.91181   0.51726  -1.51654
H     3.30776   1.68343  -0.28869
H    -4.12371   0.33861   0.74851
H    -3.27754   1.76359   1.35768
H    -3.05776   0.18664   2.20732
H    -3.02881   1.12375  -1.39797
H    -1.38689   1.79038  -1.09364
H    -1.52312   0.13615  -1.69497
