27
Generated by autodE on: 2022-05-25. E = -768.730810 Ha. Imaginary frequency = -356.0 cm-1
C     3.49858   1.28242  -0.93764
O     2.51244   0.38587  -0.41202
C     1.38565   0.94389   0.06861
O     1.16623   2.14438   0.04143
C     0.50483  -0.07627   0.63308
C     1.09374  -1.20551   1.25919
N     1.56069  -2.16133   1.74047
O    -0.67872   0.27823   1.23782
C    -1.71156   0.81639   0.65175
C    -2.92901   0.80662   1.49922
C    -1.64268   1.74185  -0.50689
C    -1.80306  -1.16472  -0.92752
C    -3.25922  -1.32774  -0.97639
C    -0.58435  -1.22330  -1.07514
F     0.52744  -1.61762  -1.63637
H     3.09562   1.84245  -1.79418
H     4.33635   0.65319  -1.26022
H     3.83320   1.98972  -0.16458
H    -3.83009   0.73917   0.87537
H    -2.98759   1.76910   2.04025
H    -2.89758  -0.01134   2.23013
H    -2.61762   1.74886  -1.01234
H    -1.46137   2.75809  -0.11161
H    -0.84958   1.50201  -1.21772
H    -3.53792  -2.09601  -1.71680
H    -3.66540  -1.63551  -0.00005
H    -3.75879  -0.38852  -1.26240
