26
Generated by autodE on: 2022-07-27. E = -573.489076 Ha
C     4.27745  -0.50677  -1.55513
N     3.08639  -0.70271  -0.75877
C     1.95980   0.02812  -0.97653
O     1.94204   0.88466  -1.88305
C     0.88142  -0.32421  -0.04797
N    -0.37147   0.15196   0.01243
C    -0.79876   1.14864  -0.99694
C    -1.24545  -0.26112   0.98723
C    -0.70254  -1.21505   2.00418
C    -2.62844   0.17148   1.02866
C    -3.48394  -0.34335   2.17719
O    -3.17320   0.92299   0.19797
H     4.65656   0.52503  -1.46988
H     4.08698  -0.70306  -2.62311
H     5.05541  -1.19630  -1.20505
H     3.10004  -1.39448  -0.01797
H     1.13890  -1.07677   0.68837
H    -1.18772   2.03319  -0.48502
H    -1.60275   0.72096  -1.60370
H     0.06571   1.39794  -1.61183
H     0.19084  -0.80049   2.50662
H    -1.43836  -1.44950   2.77671
H    -0.38773  -2.17087   1.54467
H    -3.07327  -0.05145   3.15645
H    -4.48840   0.08568   2.06787
H    -3.56154  -1.44193   2.16665
