26
Generated by autodE on: 2022-06-08. E = -573.485871 Ha
C     4.30167   0.55201   0.38428
N     2.86076   0.65789   0.39560
C     2.02861  -0.29741  -0.10747
O     2.47706  -1.35025  -0.60367
C     0.62222   0.09776   0.03177
N    -0.46257  -0.57722  -0.35580
C    -0.26997  -1.87804  -1.03589
C    -1.78609  -0.18849  -0.18812
C    -2.83336  -1.09933  -0.76860
C    -2.18218   1.00270   0.52461
C    -3.67067   1.26954   0.68497
O    -1.39869   1.84059   1.03684
H     4.75797   1.33771  -0.24067
H     4.58291  -0.42598  -0.02259
H     4.71356   0.64322   1.40231
H     2.44774   1.50310   0.77484
H     0.41458   1.04734   0.51023
H    -0.67198  -1.81381  -2.05392
H     0.79595  -2.10501  -1.06467
H    -0.81278  -2.65495  -0.48571
H    -2.86672  -2.08486  -0.27229
H    -3.82746  -0.65576  -0.66555
H    -2.67937  -1.28733  -1.84355
H    -4.16247   1.42572  -0.28849
H    -4.18869   0.43698   1.18593
H    -3.78768   2.17899   1.28885
