65
Generated by autodE on: 2022-06-08. E = -1532.645069 Ha. Imaginary frequency = -343.4 cm-1
C    -8.09109  11.34648   0.09136
N    -9.40090  11.05411   0.63697
C   -10.46925  11.83676   0.36117
O   -10.32062  12.91696  -0.23154
C   -11.75986  11.25890   0.86622
C   -12.95543   9.97481  -0.32352
C   -13.92922   9.68920   0.43680
C   -13.66139  11.39968   2.15923
C   -13.01729  10.59152   3.27592
C   -15.01205  11.97180   2.39469
C   -15.83149  11.45199   3.55585
O   -15.49748  12.86883   1.70271
N   -12.78335  12.05501   1.32428
C   -13.16733  13.19728   0.48685
C   -15.05046   8.71375   0.64882
C   -16.41083   9.40913   0.80949
C   -16.65254  10.56860   0.06106
C   -17.89139  11.20993   0.10580
C   -18.91885  10.69667   0.90179
C   -18.69688   9.52813   1.63516
C   -17.45762   8.88356   1.58264
C   -14.70407   7.84549   1.89083
F   -13.39840   7.50944   1.92957
F   -15.38773   6.68208   1.90962
F   -14.96891   8.44737   3.06400
C   -15.20119   7.74270  -0.57042
C   -13.92072   7.03241  -1.04011
C   -13.46776   7.48626  -2.42893
C   -13.35192   8.99795  -2.62519
C   -12.37777   9.80003  -1.71535
C   -11.01245   9.09273  -1.66868
C   -12.23135  11.18138  -2.38774
H    -7.74427  12.34023   0.41203
H    -8.10289  11.33102  -1.01169
H    -7.38066  10.59169   0.44977
H    -9.55856  10.14390   1.05650
H   -11.54188  10.43216   1.53266
H   -12.18605  11.17767   3.70468
H   -12.61053   9.62344   2.96434
H   -13.72654  10.38965   4.08192
H   -16.85821  11.82184   3.44034
H   -15.83782  10.36100   3.62866
H   -15.41688  11.84816   4.49863
H   -12.26917  13.53864  -0.03019
H   -13.57229  14.00338   1.10309
H   -13.92688  12.89636  -0.24829
H   -15.84949  10.98392  -0.54941
H   -18.04829  12.12154  -0.47537
H   -19.88716  11.20059   0.94697
H   -19.49314   9.10906   2.25493
H   -17.32451   7.96754   2.15690
H   -15.98503   7.01830  -0.31161
H   -15.61827   8.35134  -1.38296
H   -13.10465   7.19648  -0.32493
H   -14.09006   5.94407  -1.05671
H   -14.18959   7.11557  -3.17810
H   -12.50785   7.00202  -2.67150
H   -14.34567   9.46746  -2.55278
H   -13.01824   9.16842  -3.66208
H   -10.24568   9.72134  -1.20224
H   -10.67895   8.86263  -2.69305
H   -11.06398   8.14890  -1.10629
H   -11.82249  11.05459  -3.40271
H   -11.56358  11.85037  -1.83721
H   -13.21260  11.67300  -2.47671
