43
Generated by autodE on: 2022-06-19. E = -904.387836 Ha
C     3.81722   1.30779  -2.28310
C     3.56461   0.86723  -1.03395
C     4.67316   0.51602  -0.07757
C     2.17476   0.71923  -0.58638
C     1.78836   0.28933   0.62819
C     0.36476   0.14459   1.10113
C    -0.65167   0.71455   0.14577
C    -0.77537   2.19720  -0.03376
O    -0.22806   2.98947   0.70877
O    -1.52958   2.54448  -1.07248
C    -1.70007   3.95211  -1.30005
N    -1.38665  -0.11969  -0.48100
C    -0.99416  -1.48524  -0.09418
C    -0.18303  -2.07834  -1.25837
C    -2.21900  -2.38981   0.10350
C    -3.58801  -1.78396   0.03341
O    -2.04793  -3.58174   0.30694
C    -0.17505  -1.32235   1.25907
C    -1.11821  -1.33975   2.47421
C     0.91121  -2.37572   1.45488
H     4.84018   1.42756  -2.65075
H     3.00266   1.55959  -2.96918
H     4.61789   1.13024   0.83661
H     4.59938  -0.53574   0.24566
H     5.65936   0.66859  -0.53808
H     1.41700   0.98021  -1.33408
H     2.54288   0.02346   1.37347
H     0.29613   0.66233   2.07155
H    -0.72656   4.43091  -1.47936
H    -2.33662   4.03881  -2.18781
H    -2.18578   4.42427  -0.43392
H    -0.77470  -2.02979  -2.18492
H     0.05547  -3.12963  -1.05520
H     0.74821  -1.51830  -1.41012
H    -4.34639  -2.54020   0.27451
H    -3.75954  -1.38657  -0.97944
H    -3.66251  -0.92812   0.72154
H    -1.92878  -0.60153   2.37478
H    -0.54930  -1.09131   3.38291
H    -1.57036  -2.33056   2.62434
H     0.46016  -3.37810   1.50141
H     1.65647  -2.37005   0.64888
H     1.44142  -2.19877   2.40380
