23
Generated by autodE on: 2022-06-19. E = -351.521379 Ha
C    -3.69867   0.56801  -0.54563
C    -2.58513  -0.03037  -0.06839
C    -2.66781  -1.25427   0.80774
C    -1.26749   0.50701  -0.40187
C    -0.07862  -0.00289   0.00740
C     1.20220   0.56968  -0.35376
C     2.43029   0.11531   0.00261
C     3.67420   0.82457  -0.45302
C     2.67298  -1.09803   0.85476
H    -3.63564   1.45604  -1.18216
H    -4.69670   0.18665  -0.31235
H    -2.13841  -2.10659   0.35022
H    -2.19023  -1.07617   1.78557
H    -3.71206  -1.54972   0.98183
H    -1.26161   1.39922  -1.03964
H    -0.07671  -0.89250   0.64297
H     1.15897   1.46653  -0.98363
H     4.27969   1.14799   0.41276
H     3.44764   1.70745  -1.06861
H     4.31937   0.14577  -1.03942
H     1.75391  -1.60817   1.17058
H     3.24164  -0.82174   1.76031
H     3.30029  -1.82624   0.31083
