20
Generated by autodE on: 2022-06-19. E = -552.786712 Ha
C    -4.11129  -0.52430  -0.32890
O    -2.76466  -0.87133   0.04446
C    -1.96332   0.13965   0.37833
O    -2.27580   1.31336   0.40637
C    -0.65366  -0.33883   0.81302
N     0.40541  -0.49952   0.25917
C     1.60615  -0.56363  -0.20553
C     2.14867  -1.83805  -0.78296
C     2.38861   0.69452  -0.11018
C     3.79541   0.65155  -0.63968
O     1.89805   1.70693   0.38284
H    -4.61639  -0.00954   0.50075
H    -4.10835   0.12146  -1.21846
H    -4.61248  -1.47319  -0.55029
H     2.44428  -1.69693  -1.83475
H     1.39509  -2.63519  -0.73590
H     3.04347  -2.16694  -0.23057
H     4.26773   1.63384  -0.51183
H     4.38186  -0.11673  -0.11042
H     3.79421   0.37336  -1.70594
