47
Generated by autodE on: 2022-06-22. E = -1202.398064 Ha
C     1.58208   4.00477   0.87313
O     0.90690   3.01485   0.07173
C     1.65431   2.30649  -0.75045
O     2.84761   2.43693  -0.90950
C     0.86418   1.22170  -1.50628
C     1.23800   1.33021  -2.93850
N     1.48537   1.39760  -4.06924
O    -0.52997   1.37219  -1.37348
C    -1.21531   0.09221  -1.26744
C    -2.23177   0.03934  -2.40379
C    -1.89502  -0.00367   0.09279
C    -2.69021  -1.11983   0.40209
C    -3.29167  -1.24127   1.65637
C    -3.12225  -0.24198   2.61978
C    -2.35731   0.88511   2.30984
C    -1.75061   1.00437   1.05582
C    -0.04748  -0.94806  -1.46848
C     1.19824  -0.19622  -0.97523
C     1.37903  -0.23211   0.55030
C     1.00983  -1.57837   1.11753
C     1.37783  -1.96633   2.48468
N     2.05190  -1.04249   3.21865
O     1.10099  -3.07898   2.97896
C     0.27469  -2.46640   0.38629
N    -0.20381  -2.24394  -0.86062
C    -0.85818  -3.28817  -1.62953
H     0.80184   4.48022   1.47686
H     2.07318   4.74253   0.22401
H     2.32749   3.51897   1.51784
H    -2.78999  -0.90636  -2.38738
H    -2.94885   0.86738  -2.30359
H    -1.71671   0.12701  -3.37200
H    -2.84239  -1.90765  -0.33544
H    -3.89628  -2.12323   1.88098
H    -3.59042  -0.33874   3.60222
H    -2.22756   1.68028   3.04812
H    -1.15293   1.88371   0.82336
H     0.05067  -1.10181  -2.55287
H     2.09609  -0.59023  -1.46669
H     2.43162   0.00830   0.76760
H     0.77945   0.55805   1.02848
H     2.27709  -1.26520   4.18185
H     2.23398  -0.10410   2.88648
H     0.04072  -3.44353   0.81289
H    -1.83454  -2.95065  -2.00947
H    -0.24296  -3.58924  -2.49501
H    -1.01884  -4.16615  -0.99099
