20
Generated by autodE on: 2022-06-22. E = -457.715345 Ha
C     3.05696   0.36350   0.77882
N     1.79465  -0.18899   0.31510
C     1.66668  -1.57399   0.15094
C     0.50034  -2.16340  -0.15609
C    -0.78431  -1.39678  -0.35266
C    -0.55711   0.08794  -0.11894
C    -1.66009   1.05667  -0.22814
N    -2.87640   0.54155  -0.53778
O    -1.51793   2.28396  -0.05235
C     0.67483   0.57887   0.19475
H     3.03048   1.45687   0.68952
H     3.25353   0.10119   1.83264
H     3.88906  -0.01631   0.16695
H     2.59004  -2.13975   0.28782
H     0.48276  -3.24895  -0.27688
H    -1.18490  -1.58039  -1.37101
H    -1.56850  -1.78889   0.32673
H    -3.66607   1.17299  -0.61524
H    -3.03230  -0.44848  -0.67796
H     0.80854   1.64896   0.36101
