27
Generated by autodE on: 2022-06-22. E = -744.607998 Ha
C     3.28018   2.31843  -0.31538
O     2.25168   1.33690  -0.15482
C     2.64362   0.13148   0.31568
O     3.81333  -0.12645   0.58989
C     1.56521  -0.81217   0.44773
C     1.80660  -2.07405   1.00834
N     2.06497  -3.10461   1.50170
O     0.31786  -0.33246   0.14358
C    -0.82186  -0.89751  -0.05230
C    -0.94729  -2.37054  -0.01218
C    -1.90581   0.03060  -0.32870
C    -3.23523  -0.42231  -0.47368
C    -4.26195   0.48398  -0.73005
C    -3.98301   1.84866  -0.85079
C    -2.66697   2.31041  -0.70869
C    -1.63713   1.41626  -0.44556
H     3.75912   2.54739   0.64832
H     2.78425   3.21389  -0.70877
H     4.04610   1.97099  -1.02454
H    -1.91498  -2.70935  -0.39188
H    -0.81934  -2.74356   1.01725
H    -0.14400  -2.81493  -0.62243
H    -3.47467  -1.48102  -0.37853
H    -5.28645   0.12182  -0.83600
H    -4.79060   2.55541  -1.05417
H    -2.44773   3.37598  -0.80270
H    -0.61415   1.77516  -0.33297
