47
Generated by autodE on: 2022-06-22. E = -1202.321975 Ha. Imaginary frequency = -402.0 cm-1
C     1.60285   2.55040   2.04239
O     0.83254   1.99856   0.96471
C     1.38021   2.03581  -0.25507
O     2.49052   2.49808  -0.48680
C     0.54999   1.41513  -1.28634
C     0.86259   1.77949  -2.62427
N     1.16811   2.05993  -3.71540
O    -0.71179   1.11435  -0.89986
C    -1.47825   0.13781  -1.40188
C    -1.65718   0.02345  -2.88309
C    -2.54487  -0.23913  -0.47241
C    -3.71400  -0.89244  -0.91341
C    -4.67196  -1.32102   0.00383
C    -4.48349  -1.10709   1.37408
C    -3.33468  -0.44508   1.82160
C    -2.37338  -0.01277   0.91116
C     0.06247  -1.54612  -1.10336
C     1.22890  -0.86239  -1.44189
C     2.40713  -0.84321  -0.50070
C     1.93820  -1.00030   0.93238
C     2.74165  -0.57683   2.08708
N     3.99597  -0.12656   1.82406
O     2.32515  -0.63568   3.26132
C     0.75297  -1.62274   1.18207
N    -0.11162  -2.02107   0.20425
C    -1.14357  -3.00638   0.49085
H     1.13960   2.18153   2.96387
H     1.56448   3.64948   2.00708
H     2.64590   2.21747   1.98261
H    -2.14348  -0.92451  -3.14084
H    -2.29954   0.84828  -3.23997
H    -0.70770   0.07329  -3.42524
H    -3.87567  -1.07395  -1.97597
H    -5.57184  -1.82721  -0.35256
H    -5.23261  -1.45174   2.09057
H    -3.18382  -0.27130   2.88944
H    -1.47708   0.49627   1.26325
H    -0.51774  -2.06362  -1.86507
H     1.43312  -0.72414  -2.50332
H     3.09236  -1.67013  -0.78467
H     2.99474   0.07543  -0.64600
H     4.54075   0.24929   2.59263
H     4.33192   0.02307   0.88104
H     0.44244  -1.83687   2.20654
H    -1.99503  -2.86798  -0.18463
H    -0.75885  -4.03355   0.36380
H    -1.49406  -2.88862   1.52465
