51
Generated by autodE on: 2022-06-23. E = -1279.110632 Ha
C    -2.22504  -3.04937  -2.28140
O    -1.76027  -1.89469  -1.56040
C    -1.54992  -2.04782  -0.26239
O    -1.75154  -3.08103   0.34520
C    -0.96325  -0.81541   0.43568
C    -1.59520  -0.80000   1.85091
O    -0.99257  -0.93788   2.89394
O    -2.90774  -0.59092   1.77938
C    -3.61348  -0.45164   3.02247
C     0.57299  -0.95844   0.53673
C     1.21366  -1.50261  -0.74935
C     2.66435  -1.10725  -0.84910
C     3.60894  -1.80972  -1.72322
N     3.10381  -2.82628  -2.47116
O     4.82102  -1.51669  -1.80379
C     3.12428  -0.01887  -0.16349
N     2.38024   0.75586   0.65887
C     2.94104   1.89746   1.35663
C     0.97583   0.48963   0.85634
C    -0.02435   1.37990   0.02131
C     0.59781   1.92959  -1.26171
C    -0.57474   2.48437   0.96274
C    -0.41831   3.93083   0.59870
O    -1.16397   2.14557   1.97802
N    -1.11017   0.43196  -0.28861
C    -2.41531   0.96507  -0.62490
H    -2.35311  -2.72274  -3.31921
H    -3.18131  -3.39727  -1.86676
H    -1.48052  -3.85590  -2.22187
H    -3.50843  -1.36322   3.62746
H    -4.66404  -0.28903   2.75663
H    -3.22262   0.41088   3.58086
H     0.83611  -1.60648   1.38076
H     1.10790  -2.59929  -0.74329
H     0.65357  -1.14165  -1.62711
H     2.11866  -3.05647  -2.48625
H     3.72474  -3.30840  -3.11119
H     4.17346   0.26874  -0.25578
H     2.81806   1.78780   2.44728
H     4.01108   1.98164   1.12767
H     2.44459   2.83402   1.05333
H     0.75684   0.66251   1.91689
H     1.41142   2.63515  -1.04845
H     1.00714   1.10903  -1.86434
H    -0.15664   2.45334  -1.86590
H    -0.91391   4.12504  -0.36600
H    -0.86374   4.56043   1.37947
H     0.64361   4.18716   0.46677
H    -2.29917   1.72863  -1.40971
H    -3.05094   0.16839  -1.03281
H    -2.95045   1.42624   0.22423
