20
Generated by autodE on: 2022-06-23. E = -457.715317 Ha
C     3.00468   0.91412  -0.49862
N     1.80996   0.12733  -0.24084
C     1.93027  -1.24486   0.01199
C     0.87402  -2.02637   0.28670
C    -0.54104  -1.50717   0.35138
C    -0.57264  -0.01391   0.06796
C    -1.83834   0.73657   0.06769
N    -2.95744   0.01731   0.33579
O    -1.91392   1.96071  -0.16359
C     0.56760   0.68429  -0.19854
H     3.67872   0.91342   0.37393
H     2.71673   1.94993  -0.71690
H     3.55867   0.51486  -1.36324
H     2.94984  -1.63194  -0.03263
H     1.04782  -3.08908   0.47053
H    -0.98294  -1.73161   1.34402
H    -1.18194  -2.05988  -0.36595
H    -2.93486  -0.97135   0.55029
H    -3.84997   0.49826   0.35822
H     0.51693   1.75621  -0.39630
