51
Generated by autodE on: 2022-06-23. E = -1279.028797 Ha. Imaginary frequency = -294.7 cm-1
C    -0.75019  -2.52058  -2.72622
O    -0.68312  -1.44427  -1.78379
C    -1.33761  -1.59397  -0.63158
O    -1.90854  -2.63344  -0.33056
C    -1.21983  -0.42555   0.28058
C    -2.09175  -0.64393   1.49222
O    -1.90793  -1.48343   2.35118
O    -3.22621   0.07023   1.39692
C    -4.13438  -0.03746   2.49815
C     0.79968  -0.70199   1.16792
C     1.33665  -1.97877   0.54506
C     2.06490  -1.69447  -0.75096
C     2.36739  -2.74884  -1.73030
N     2.09741  -4.02289  -1.34789
O     2.86309  -2.51642  -2.85116
C     2.49758  -0.43500  -1.02388
N     2.29992   0.63208  -0.18848
C     3.06526   1.85571  -0.38755
C     1.48736   0.49758   0.92966
C    -0.54753   1.90433   0.33775
C    -0.17335   3.07441  -0.52600
C    -0.53835   2.06255   1.78644
C     0.15715   3.27403   2.37631
O    -1.09594   1.27091   2.56597
N    -1.15279   0.84413  -0.29047
C    -1.62984   1.06404  -1.67258
H    -0.05959  -2.25278  -3.53312
H    -1.77448  -2.62340  -3.11414
H    -0.43530  -3.46224  -2.25980
H    -4.49112  -1.07164   2.61191
H    -4.97503   0.62744   2.26641
H    -3.64425   0.28363   3.42905
H     0.38444  -0.81375   2.16582
H     2.02041  -2.45793   1.27581
H     0.52884  -2.71296   0.40524
H     1.64422  -4.24459  -0.47062
H     2.24118  -4.76963  -2.01898
H     3.05468  -0.22270  -1.93771
H     4.09748   1.74697  -0.01306
H     3.10596   2.10580  -1.45690
H     2.58533   2.68146   0.14906
H     1.67030   1.21337   1.72509
H     0.49868   3.75313   0.00570
H     0.33412   2.75023  -1.44505
H    -1.05850   3.66372  -0.82457
H    -0.43154   4.18365   2.17220
H     0.22046   3.13366   3.46319
H     1.16495   3.43508   1.96931
H    -2.13680   2.03496  -1.71320
H    -0.81720   1.05097  -2.40919
H    -2.36585   0.29861  -1.92911
