50
Generated by autodE on: 2022-06-01. E = -1146.463549 Ha
C    -0.57056  -0.68352  -3.09311
C    -0.34090  -1.43295  -1.80795
O     0.35262  -2.42745  -1.77757
C    -1.06854  -0.92456  -0.50446
C    -2.49841  -0.54562  -0.97890
C    -3.35033  -1.65330  -1.54605
O    -2.90775   0.59840  -0.94157
C    -1.08101  -2.07597   0.54777
C    -2.30462  -2.24185   1.45725
C    -2.82139  -0.99746   2.18088
C    -1.74876  -0.19885   2.94042
C    -1.31286   1.14137   2.32419
C    -2.48152   2.12828   2.14835
C    -0.47869   1.08582   1.07547
C    -0.33014   0.31105  -0.01914
N     0.70007   0.87805  -0.87290
C     1.97657   0.20785  -0.88672
C     2.38142  -0.65099   0.14087
C     3.62420  -1.28738   0.06489
C     4.46986  -1.05644  -1.02307
C     4.06754  -0.18466  -2.04270
C     2.82179   0.43953  -1.98006
N     0.82059   2.24295  -0.48277
N     0.40338   2.23731   0.89529
C     1.34994   2.51820   1.80013
N     2.13408   2.83757   2.60367
H    -0.94251   0.33485  -2.94242
H     0.36193  -0.66866  -3.67371
H    -1.31707  -1.25053  -3.67548
H    -4.24738  -1.76146  -0.91714
H    -2.83451  -2.61926  -1.60884
H    -3.69037  -1.34742  -2.54712
H    -0.93165  -3.02180   0.01202
H    -0.18262  -1.94446   1.16498
H    -2.02001  -2.99603   2.21075
H    -3.13529  -2.69138   0.89262
H    -3.59817  -1.32757   2.88852
H    -3.34614  -0.33942   1.47334
H    -0.85558  -0.82249   3.10752
H    -2.13124   0.04971   3.94250
H    -0.63827   1.59435   3.07264
H    -3.02181   2.24854   3.10039
H    -3.19010   1.77950   1.38452
H    -2.11266   3.11659   1.83631
H     1.72781  -0.82214   0.99684
H     3.93385  -1.96153   0.86693
H     5.44028  -1.55477  -1.07929
H     4.72318  -0.00047  -2.89694
H     2.48809   1.10877  -2.77527
H     0.06779   2.74247  -0.96545
