17
Generated by autodE on: 2022-06-01. E = -489.488423 Ha
N     4.41396  -0.15934  -0.78812
C     3.27120  -0.11679  -0.52608
N     1.96244  -0.06880  -0.36455
N     1.55147  -0.04701   0.89187
N     0.37049  -0.00436   1.33459
C    -0.76388   0.02942   0.52741
C    -0.83496   0.02940  -0.88626
C    -2.08210   0.06927  -1.51023
C    -3.26181   0.10840  -0.76086
C    -3.19908   0.10795   0.63864
C    -1.96490   0.06921   1.27494
H     2.26553  -0.06751   1.63740
H     0.07108  -0.00070  -1.48151
H    -2.12990   0.06956  -2.60148
H    -4.22982   0.13921  -1.26589
H    -4.11595   0.13794   1.23097
H    -1.89319   0.06852   2.36376
