57
Generated by autodE on: 2022-06-06. E = -1478.615267 Ha
C    -3.40205  -2.01801  -2.50691
N    -2.49796  -1.25037  -1.67667
C    -2.82685  -0.86026  -0.44001
O    -3.95210  -0.99574   0.04144
C    -1.63455  -0.24993   0.37848
C    -2.27440   0.73832   1.39393
O    -3.04008   0.41454   2.27330
O    -1.91290   1.99756   1.17130
C    -2.39771   2.98748   2.08755
N    -0.61827   0.27412  -0.51541
C    -0.91859   1.42650  -1.35116
C     0.74879   0.11983   0.02943
C     1.09529   1.33217   0.92128
C     0.84230   1.34618   2.30167
C     1.03440   2.50536   3.05903
C     1.48308   3.68000   2.45092
C     1.74196   3.68091   1.07716
C     1.55125   2.51956   0.32475
C     1.79248  -0.07452  -1.07333
C     3.15443   0.03873  -0.75279
C     4.14126  -0.25276  -1.69653
C     3.78318  -0.66176  -2.98542
C     2.43086  -0.78515  -3.31221
C     1.44531  -0.50064  -2.36126
C     0.63303  -1.18660   0.86015
C     0.96300  -2.54211   0.15372
C     0.94052  -3.59657   1.24958
C    -0.35197  -3.78086   1.54480
C    -1.10599  -2.84794   0.60954
O    -0.26608  -2.81926  -0.54694
C    -0.87352  -1.39749   1.15629
F    -1.14559  -1.36809   2.51229
H    -3.48420  -3.06269  -2.15992
H    -3.03042  -2.01816  -3.53950
H    -4.40591  -1.57137  -2.48877
H    -1.50833  -1.21060  -1.90307
H    -1.95275   3.93592   1.76674
H    -3.49498   3.04386   2.04670
H    -2.07962   2.74568   3.11126
H    -0.73813   2.39278  -0.85759
H    -1.97503   1.39715  -1.64688
H    -0.31405   1.39395  -2.26867
H     0.46163   0.46002   2.80838
H     0.82627   2.48630   4.13142
H     1.63264   4.58658   3.04197
H     2.09632   4.59034   0.58577
H     1.76522   2.53791  -0.74466
H     3.44773   0.35071   0.25106
H     5.19512  -0.16027  -1.42301
H     4.55344  -0.88504  -3.72734
H     2.13503  -1.10948  -4.31280
H     0.39752  -0.62390  -2.62942
H     1.21433  -1.10926   1.78153
H     1.81718  -2.53811  -0.52689
H     1.82272  -4.01226   1.73675
H    -0.80278  -4.38754   2.32910
H    -2.14123  -3.10578   0.36757
