44
Generated by autodE on: 2022-06-06. E = -1071.757990 Ha
C    -3.52133  -0.94963  -2.61914
N    -3.05280  -0.73758  -1.26907
C    -1.91175  -0.04891  -1.01137
O    -1.16821   0.33148  -1.94703
C    -1.59996   0.21945   0.38864
C    -2.39126  -0.19912   1.48876
O    -3.50644  -0.74584   1.43469
O    -1.79268   0.01517   2.70055
C    -2.54627  -0.34523   3.85715
N    -0.38079   0.92575   0.60648
C    -0.49253   2.27576   1.17828
C     0.74432   0.45710   0.10605
C     0.90624  -0.98496  -0.16085
C     1.53847  -1.40981  -1.34050
C     1.72795  -2.77166  -1.58318
C     1.31046  -3.71518  -0.64079
C     0.69995  -3.29466   0.54842
C     0.48793  -1.93909   0.78605
C     1.87883   1.34667  -0.19995
C     3.17646   1.00526   0.22124
C     4.25350   1.83092  -0.09924
C     4.05065   2.98121  -0.86971
C     2.76620   3.30755  -1.31844
C     1.68120   2.49939  -0.98184
H    -3.83499  -0.01190  -3.11247
H    -2.73726  -1.40404  -3.24455
H    -4.38329  -1.62933  -2.59514
H    -3.64760  -0.94322  -0.46802
H    -1.91963  -0.08745   4.72019
H    -3.49333   0.21350   3.90544
H    -2.76659  -1.42331   3.86707
H     0.48337   2.62870   1.52916
H    -0.90046   2.96732   0.42883
H    -1.18631   2.21808   2.02401
H     1.86220  -0.67055  -2.07447
H     2.20669  -3.09546  -2.50985
H     1.46622  -4.78030  -0.82716
H     0.38879  -4.02917   1.29442
H     0.01796  -1.61037   1.71347
H     3.33229   0.10042   0.81118
H     5.25668   1.57213   0.24610
H     4.89795   3.61981  -1.12972
H     2.60964   4.19308  -1.93812
H     0.68234   2.73507  -1.35063
