13
Generated by autodE on: 2022-06-06. E = -406.788330 Ha
F     1.70531  -1.41608   0.67924
C     0.90984  -0.48350   0.16369
C     1.08563   0.83120   0.04739
C    -0.27537   1.29845  -0.52271
C    -1.34653   1.11822   0.58252
C    -1.49398  -0.20300   0.71141
C    -0.51416  -0.80743  -0.32514
O    -0.61053   0.17389  -1.37272
H     1.91428   1.46523   0.35466
H    -0.27806   2.24425  -1.07520
H    -1.80839   1.92911   1.14499
H    -2.10628  -0.77756   1.40532
H    -0.69575  -1.83007  -0.67369
