23
Generated by autodE on: 2022-07-27. E = -778.510128 Ha
C     1.52415  -3.80213   0.57318
O     0.98661  -2.50040   0.31018
C     0.61046  -2.26118  -0.95541
O     0.70568  -3.07691  -1.86189
N     0.09022  -1.01267  -1.21542
O     0.06823  -0.28402  -0.05799
C    -0.34354   0.91111  -0.08839
C    -0.86394   1.54028  -1.37377
C     0.14664   2.16587  -2.26689
O    -2.06324   1.50784  -1.54383
C    -0.37475   1.68207   1.18277
O    -0.72503   2.84507   1.18352
O     0.01295   0.97514   2.22741
C     0.02015   1.65316   3.49923
H     0.78190  -4.58226   0.34921
H     1.77225  -3.81475   1.64114
H     2.42930  -3.97731  -0.02660
H     0.58015   3.02995  -1.73332
H     0.96656   1.45644  -2.46141
H    -0.32307   2.49343  -3.20395
H     0.70380   2.51293   3.46278
H    -0.99471   1.99380   3.74804
H     0.36862   0.91361   4.22777
