49
Generated by autodE on: 2022-06-24. E = -1467.978054 Ha. Imaginary frequency = -205.9 cm-1
C    -1.13842  -3.98307   1.63043
O    -1.24103  -2.70368   0.98387
C    -1.09797  -2.69511  -0.33428
O    -0.93473  -3.67669  -1.03153
N    -1.15187  -1.42250  -0.94251
O    -1.37597  -0.49161  -0.00077
C    -1.43922   0.77150  -0.36666
C    -2.13186   1.21654  -1.61718
C    -2.18548   2.68613  -1.91841
O    -2.66732   0.38935  -2.33739
C    -1.27996   1.67066   0.82413
O    -1.21380   2.88048   0.74685
O    -1.18294   0.98056   1.95361
C    -0.93053   1.71612   3.16297
C     0.72780   0.52419  -1.72919
C     0.45338   1.00677  -3.11920
C     1.29301   1.51498  -0.78505
O     1.40871   2.69392  -1.10186
C     1.72743   1.03815   0.56650
O     2.05428   1.86873   1.55259
C     2.09513   3.30130   1.46076
C     1.79382  -0.30574   0.83323
O     2.21767  -0.70734   2.05797
C     1.34248  -1.57483   2.79641
C     1.53559  -1.30298  -0.20517
O     1.82240  -2.48607  -0.02945
C     0.89969  -0.85605  -1.49911
C     1.02769  -1.80275  -2.65257
H    -1.95379  -4.64153   1.29869
H    -1.22190  -3.78203   2.70406
H    -0.16955  -4.44634   1.39932
H    -2.88829   3.17486  -1.22499
H    -1.21014   3.16788  -1.77675
H    -2.54280   2.81035  -2.94851
H     0.09743   2.10170   3.15054
H    -1.64540   2.54335   3.26722
H    -1.05367   0.99539   3.97864
H     0.26340   2.08416  -3.14231
H    -0.39272   0.47149  -3.57098
H     1.33547   0.80641  -3.75265
H     2.36455   3.63310   2.47141
H     2.85911   3.62564   0.74324
H     1.11605   3.70803   1.18170
H     1.67640  -1.52940   3.84144
H     0.30266  -1.22367   2.72691
H     1.41047  -2.60967   2.43385
H     0.21040  -1.67560  -3.37169
H     1.05005  -2.84022  -2.30417
H     1.97683  -1.59146  -3.17501
