46
Generated by autodE on: 2022-06-18. E = -831.575577 Ha
C     3.05306   0.00606  -0.75146
C     2.58037  -0.95033   0.06165
C     3.47407  -2.05508   0.56203
C     1.14416  -0.99180   0.54056
C     0.30754   0.26798   0.27329
C     0.67970   1.45168   1.10998
C     0.78730   2.72980   0.70409
C     0.54050   3.20205  -0.70341
C     1.16084   3.81984   1.67290
C    -1.14381  -0.25990   0.48080
C    -1.64299  -0.19127   1.92183
C    -2.08299   0.53834  -0.43290
O    -2.40809   1.69718  -0.13930
N    -2.46912  -0.09704  -1.54892
C    -3.28646   0.49978  -2.58202
O    -1.09376  -1.62269   0.05774
C     0.26484  -2.12932  -0.06243
C     0.31580  -3.42659   0.73616
C     0.54343  -2.37651  -1.54275
H     4.10120   0.00055  -1.06613
H     2.43249   0.82035  -1.12995
H     4.52680  -1.87039   0.30316
H     3.18664  -3.02777   0.12916
H     3.39310  -2.16373   1.65661
H     1.17129  -1.15460   1.63182
H     0.39739   0.51644  -0.79202
H     0.87325   1.23258   2.16631
H     0.33019   2.38936  -1.41025
H     1.41034   3.77070  -1.07552
H    -0.31827   3.89508  -0.72565
H     1.31875   3.43301   2.69063
H     2.08258   4.33501   1.34884
H     0.37362   4.59359   1.71340
H    -1.79669   0.84927   2.23517
H    -2.60125  -0.72738   1.99885
H    -0.92310  -0.66613   2.60340
H    -2.12521  -1.04788  -1.65168
H    -2.71858   0.62963  -3.51760
H    -3.62747   1.48459  -2.24000
H    -4.16605  -0.12634  -2.79662
H     0.09158  -3.23364   1.79599
H    -0.42909  -4.13729   0.34533
H     1.30549  -3.89867   0.66868
H     1.52443  -2.85220  -1.68684
H    -0.22675  -3.04677  -1.95477
H     0.52897  -1.43711  -2.11429
