23
Generated by autodE on: 2022-06-18. E = -479.948496 Ha
C     3.17461   0.74539  -0.98078
N     1.79534   0.65772  -0.55665
C     1.40888  -0.27716   0.37672
O     2.28175  -0.89699   1.03832
C     0.00250  -0.48350   0.58949
C    -0.52603  -1.50831   1.53601
O    -0.77704   0.21871  -0.26586
C    -2.03455   0.39433  -0.46723
C    -2.36961   1.31214  -1.58837
C    -3.10190  -0.18481   0.39423
H     3.84110   0.88240  -0.11654
H     3.29154   1.61201  -1.64557
H     3.52062  -0.15433  -1.52432
H     1.08556   1.00139  -1.19252
H    -1.25573  -1.11549   2.26150
H    -0.99465  -2.36835   1.02363
H     0.33199  -1.89284   2.10304
H    -1.46089   1.69616  -2.07129
H    -2.97520   2.16174  -1.22355
H    -2.98774   0.79245  -2.34254
H    -3.00063  -1.26988   0.53174
H    -3.08420   0.28242   1.39511
H    -4.08108   0.02169  -0.05740
