23
Generated by autodE on: 2022-07-27. E = -479.948509 Ha
C    -0.87339   1.19757  -3.06839
N    -0.57538   0.49356  -1.84142
C    -0.79626   1.08883  -0.62054
O    -1.46522   2.15274  -0.55507
C    -0.24978   0.46023   0.55132
C    -0.56531   0.92485   1.93334
O     0.42091  -0.68465   0.28301
C     1.08529  -1.56441   0.94447
C     1.37401  -1.46363   2.40171
C     1.66058  -2.66437   0.12514
H    -1.91656   1.54627  -3.07565
H    -0.22888   2.08266  -3.22945
H    -0.73384   0.51450  -3.91723
H     0.11639  -0.24502  -1.88124
H     0.32119   1.11192   2.55963
H    -1.22126   0.22507   2.48298
H    -1.10792   1.87415   1.83561
H     2.07989  -0.63581   2.59542
H     0.47552  -1.28266   3.00669
H     1.84573  -2.39482   2.74179
H     2.76202  -2.67923   0.21944
H     1.30527  -3.64507   0.48865
H     1.39021  -2.55267  -0.93355
