52
Generated by autodE on: 2022-06-28. E = -1242.935563 Ha
C     3.27910  -3.51530  -1.09810
O     2.89764  -2.49843  -0.15871
C     2.04186  -1.57165  -0.59120
O     1.57646  -1.57325  -1.71585
C     1.66801  -0.58658   0.52151
N     0.34013  -0.84247   1.05196
C     0.00885  -2.19549   1.43117
C    -0.68477   0.10397   0.60646
C    -1.21578   0.95013   1.79060
C    -0.85520   0.54618   3.19231
O    -1.96888   1.88639   1.57942
C    -1.87373  -0.59972  -0.08220
C    -3.17655  -0.59243   0.44081
C    -4.21100  -1.29068  -0.19085
C    -3.96486  -2.02056  -1.35515
C    -2.66716  -2.05455  -1.87417
C    -1.63544  -1.35800  -1.24205
C     0.12871   0.99470  -0.43019
N    -0.28137   2.35105  -0.65843
C    -1.48769   2.56798  -1.43453
C     0.21240   3.34498   0.17280
C     1.23653   3.17032   1.03011
C     1.92084   1.84513   1.19629
C     1.60081   0.87031   0.03191
C     2.62702   1.12461  -1.07372
N     2.28988   2.01217  -2.01764
O     3.72556   0.55519  -1.04125
H     3.78249  -3.06226  -1.96426
H     3.96674  -4.18015  -0.56311
H     2.39526  -4.07347  -1.43867
H     2.42963  -0.70150   1.30890
H    -0.93712  -2.21429   1.98944
H    -0.10053  -2.88988   0.57355
H     0.79606  -2.59634   2.09001
H     0.22959   0.46124   3.33359
H    -1.28324   1.26898   3.89886
H    -1.27573  -0.45373   3.39072
H    -3.41077  -0.03686   1.34778
H    -5.21601  -1.26106   0.23700
H    -4.77366  -2.56392  -1.84931
H    -2.45111  -2.63184  -2.77651
H    -0.62729  -1.42370  -1.65041
H     0.03940   0.46453  -1.38512
H    -1.53357   3.61690  -1.76098
H    -1.46907   1.92832  -2.33014
H    -2.40255   2.33721  -0.86292
H    -0.26980   4.31798   0.05168
H     1.58618   4.02243   1.61577
H     3.01443   1.97036   1.25498
H     1.64008   1.36605   2.14840
H     1.37856   2.46532  -1.99684
H     2.96027   2.24567  -2.74383
