20
Generated by autodE on: 2022-06-28. E = -457.715321 Ha
C     3.16557  -0.25776   0.13664
N     1.81289   0.25016  -0.02204
C     1.61774   1.55122  -0.50221
C     0.39802   2.06833  -0.71883
C    -0.87834   1.30415  -0.46634
C    -0.56784  -0.09969   0.02706
C    -1.64211  -1.05869   0.32996
N    -2.90949  -0.61144   0.14280
O    -1.43391  -2.22022   0.73625
C     0.71509  -0.52203   0.21071
H     3.68690  -0.31840  -0.83329
H     3.75190   0.39416   0.80340
H     3.12745  -1.26226   0.57604
H     2.53430   2.11442  -0.68700
H     0.32671   3.09246  -1.09224
H    -1.51023   1.85022   0.26418
H    -1.49124   1.27248  -1.39032
H    -3.11664   0.32038  -0.19328
H    -3.68068  -1.24151   0.33413
H     0.90915  -1.53486   0.56719
