32
Generated by autodE on: 2022-07-27. E = -785.178401 Ha
C     5.26690  -0.03585   1.33879
O     3.88756   0.33605   1.36206
C     3.07145  -0.31271   0.49304
O     3.50708  -1.17247  -0.26594
C     1.72702   0.20585   0.66765
N     0.61643  -0.15626   0.01117
C     0.69542  -1.21211  -1.02996
C    -0.62462   0.38137   0.22643
C    -0.87908   1.41744   1.20747
C    -2.30869   1.90682   1.32576
O    -0.00877   1.91917   1.94490
C    -1.76614  -0.12602  -0.59194
C    -2.54429  -1.20474  -0.14181
C    -3.63175  -1.65929  -0.89217
C    -3.95685  -1.03775  -2.10201
C    -3.19127   0.04030  -2.55749
C    -2.10397   0.49349  -1.80607
H     5.70907   0.15725   0.34962
H     5.76083   0.58361   2.09710
H     5.39075  -1.10137   1.58473
H     1.59502   0.97954   1.41411
H     0.03532  -2.03849  -0.74579
H     0.35401  -0.79529  -1.98336
H     1.72496  -1.55760  -1.11159
H    -2.99018   1.08429   1.59083
H    -2.35021   2.68222   2.10192
H    -2.66709   2.32203   0.37159
H    -2.29106  -1.68723   0.80525
H    -4.22815  -2.50001  -0.52993
H    -4.80816  -1.39167  -2.68838
H    -3.44246   0.53195  -3.50031
H    -1.50678   1.33783  -2.15860
