32
Generated by autodE on: 2022-06-28. E = -785.178401 Ha
C     5.28618  -0.02307  -1.25920
O     4.07470  -0.36539  -0.58367
C     2.94646   0.25543  -1.01235
O     2.97762   1.06520  -1.93345
C     1.83856  -0.21908  -0.20366
N     0.54754   0.12799  -0.29616
C     0.12485   1.09556  -1.34045
C    -0.44683  -0.35248   0.51355
C    -0.20869  -1.30469   1.58021
C    -1.41542  -1.73550   2.38992
O     0.90728  -1.78058   1.86472
C    -1.83993   0.13490   0.28642
C    -2.31561   1.27246   0.95847
C    -3.62811   1.71290   0.77011
C    -4.48318   1.01835  -0.09145
C    -4.02117  -0.11856  -0.76201
C    -2.70828  -0.55768  -0.57268
H     6.07696  -0.61463  -0.78230
H     5.50458   1.05046  -1.15403
H     5.22326  -0.27283  -2.32918
H     2.07298  -0.93575   0.57380
H    -0.61947   0.61617  -1.98507
H     0.99527   1.39779  -1.92099
H    -0.33183   1.96433  -0.85453
H    -2.17345  -2.21262   1.75029
H    -1.90170  -0.87279   2.86996
H    -1.08531  -2.44591   3.15917
H    -1.64703   1.81183   1.63367
H    -3.98459   2.59990   1.29912
H    -5.51007   1.36152  -0.23820
H    -4.68575  -0.66682  -1.43391
H    -2.34649  -1.44736  -1.09360
