52
Generated by autodE on: 2022-06-28. E = -1242.881165 Ha. Imaginary frequency = -383.8 cm-1
C     4.43379  -1.50724   2.04934
O     3.14514  -0.90836   1.85343
C     2.46009  -1.29128   0.76636
O     2.87227  -2.13802  -0.00473
C     1.20602  -0.48105   0.65094
N     0.01417  -1.12167   0.37171
C    -0.03391  -2.32550  -0.46328
C    -1.17798  -0.40615   0.60508
C    -1.33099   0.50070   1.69221
C    -2.66833   1.21992   1.84563
O    -0.44089   0.77776   2.55217
C    -2.37844  -0.82143  -0.17797
C    -3.46436  -1.44683   0.46340
C    -4.60381  -1.82734  -0.24923
C    -4.67813  -1.59915  -1.62707
C    -3.60176  -0.99094  -2.28142
C    -2.46490  -0.60662  -1.56593
C     0.46414   1.82885  -0.38865
N     0.51066   2.76094   0.57212
C    -0.58330   3.70690   0.75587
C     1.64695   2.88977   1.39303
C     2.80747   2.30395   1.07035
C     2.93153   1.49664  -0.19269
C     1.56270   0.92721  -0.60445
C     1.50657   0.27568  -1.96262
N     2.66063  -0.22991  -2.43944
O     0.45979   0.22237  -2.62262
H     5.08897  -1.29251   1.19240
H     4.84056  -1.05528   2.96108
H     4.33803  -2.59543   2.17282
H     1.09275   0.15964   1.52192
H    -0.95154  -2.87899  -0.23528
H    -0.02489  -2.09444  -1.53761
H     0.82326  -2.96550  -0.23838
H    -3.35643   0.61968   2.46336
H    -2.49070   2.16374   2.37845
H    -3.17534   1.42713   0.89404
H    -3.40785  -1.64109   1.53665
H    -5.43387  -2.31051   0.27238
H    -5.56779  -1.89657  -2.18761
H    -3.64890  -0.80934  -3.35832
H    -1.62545  -0.14054  -2.08205
H    -0.40632   1.82184  -1.03896
H    -0.30949   4.69554   0.35319
H    -1.47433   3.34080   0.23412
H    -0.80656   3.81080   1.82535
H     1.50301   3.50855   2.27915
H     3.67300   2.42589   1.72326
H     3.33201   2.12493  -1.01193
H     3.67804   0.70064  -0.05343
H     3.48436  -0.33073  -1.85939
H     2.62690  -0.74938  -3.31135
