31
Generated by autodE on: 2022-10-13. E = -651.918292 Ha
C    -4.54601   1.56946  -0.03325
N    -3.21293   1.00519  -0.03799
C    -2.96083  -0.20456   0.55101
O    -3.90828  -0.81355   1.10288
C    -1.62985  -0.80063   0.48574
C    -1.54133  -2.28700   0.58579
N    -0.46712  -0.11235   0.22552
C    -0.40502   1.33872   0.50513
C     0.67363  -0.74665  -0.09853
C     1.99909  -0.21637  -0.34207
C     2.34354   1.09662  -0.75542
C     3.67318   1.44956  -0.99074
C     4.70512   0.51879  -0.83887
C     4.38553  -0.79173  -0.45984
C     3.06354  -1.15143  -0.22202
H    -4.50499   2.57924  -0.46280
H    -5.26223   0.96794  -0.62131
H    -4.93839   1.64112   0.99227
H    -2.54969   1.38743  -0.69902
H    -2.50241  -2.68645   0.92632
H    -0.75462  -2.60231   1.29708
H    -1.29384  -2.76732  -0.38200
H    -0.48730   1.92860  -0.41648
H     0.55352   1.55700   0.98611
H    -1.21026   1.60856   1.18955
H     0.59545  -1.82787  -0.15905
H     1.57516   1.84434  -0.93487
H     3.90158   2.46933  -1.31079
H     5.74258   0.80551  -1.02454
H     5.17564  -1.53831  -0.34679
H     2.82855  -2.17659   0.07516
