10
Generated by autodE on: 2022-10-07. E = -455.051692 Ha
O     2.19524   1.27047   0.29849
C     1.96923   0.04271   0.11563
O     2.84140  -0.86825   0.05291
C     0.53083  -0.40704  -0.03875
C    -0.53087   0.40705   0.03885
C    -1.96924  -0.04270  -0.11565
O    -2.19516  -1.27044  -0.29881
O    -2.84143   0.86820  -0.05266
H     0.37250  -1.47597  -0.21829
H    -0.37256   1.47598   0.21844
