41
Generated by autodE on: 2022-10-07. E = -1106.975941 Ha. Imaginary frequency = -287.2 cm-1
C    -4.22845   2.01913   1.02085
N    -2.87493   1.50005   0.99703
C    -2.64806   0.22971   1.42708
O    -3.54616  -0.40463   2.01432
C    -1.34573  -0.42878   1.11672
C    -1.31868  -1.91007   1.40803
C    -1.20997  -0.72874  -1.26080
C    -2.10605   0.42147  -1.56613
O    -3.32694   0.17391  -1.77590
O    -1.61039   1.59972  -1.54895
C     0.17444  -0.66903  -1.40911
C     1.02397  -1.88189  -1.68224
O     2.14373  -1.67951  -2.23391
O     0.59462  -3.01908  -1.31964
C     0.95146  -0.39719   0.65339
C     2.30308   0.15346   0.51738
C     2.60302   1.43195  -0.00309
C     3.92504   1.83523  -0.19203
C     4.98438   0.97386   0.11464
C     4.70531  -0.30684   0.60230
C     3.38435  -0.71125   0.79441
N    -0.14452   0.24857   1.15833
C    -0.05545   1.67958   1.47151
H    -4.21926   3.05085   0.64429
H    -4.90723   1.42053   0.38818
H    -4.63237   2.02325   2.04366
H    -2.30233   1.81798   0.20675
H    -2.33694  -2.30945   1.35055
H    -0.93970  -2.09711   2.43155
H    -0.69735  -2.47709   0.70630
H    -1.69457  -1.70703  -1.24713
H     0.59994   0.27905  -1.74727
H     0.94080  -1.47073   0.81326
H     1.80026   2.10757  -0.29470
H     4.12934   2.82958  -0.59680
H     6.01771   1.29438  -0.03721
H     5.52130  -0.99630   0.83248
H     3.17374  -1.71649   1.16730
H    -0.18759   2.30255   0.57802
H     0.92928   1.87918   1.90714
H    -0.81816   1.93774   2.20913
