25
Generated by autodE on: 2022-06-16. E = -444.072234 Ha
C     2.37992  -0.58385   0.68600
C     1.81635   0.21603  -0.45247
O     2.52276   0.72763  -1.27750
C     0.30832   0.31880  -0.59968
C    -0.25141  -0.89818  -1.35541
C    -1.74586  -0.85852  -1.00115
C    -1.83571  -0.05412   0.31971
C    -2.51776  -0.80189   1.45773
N    -0.43871   0.30623   0.64788
C    -0.32746   1.54176   1.39989
H     1.93015  -1.58887   0.70479
H     2.12901  -0.10607   1.64543
H     3.47049  -0.65989   0.58366
H     0.11718   1.23832  -1.19511
H     0.21739  -1.81620  -0.96913
H    -0.04824  -0.83966  -2.43309
H    -2.16689  -1.86905  -0.89493
H    -2.31465  -0.34657  -1.79061
H    -2.40899   0.87622   0.12616
H    -2.51071  -0.21254   2.38848
H    -3.56887  -1.01349   1.20442
H    -2.00814  -1.75959   1.65224
H     0.72264   1.75136   1.65462
H    -0.88729   1.46956   2.34420
H    -0.72028   2.41679   0.83689
