19
Generated by autodE on: 2022-06-16. E = -365.379020 Ha
C    -2.89123   0.09310   0.52613
C    -1.42550   0.26869   0.36122
N    -0.64850  -0.64261  -0.17649
C    -1.26188  -1.90205  -0.64047
C     0.73620  -0.53393  -0.35574
C     1.50160   0.58062   0.00711
C     2.99257   0.49391  -0.27435
O     1.06150   1.64315   0.54326
H    -3.40184  -0.06066  -0.44148
H    -3.13557  -0.78346   1.15260
H    -3.31845   0.98534   1.00177
H    -0.91021   1.17354   0.68250
H    -1.74086  -2.41439   0.20426
H    -0.48915  -2.54629  -1.06867
H    -2.02207  -1.68616  -1.40246
H     1.19716  -1.40412  -0.81282
H     3.28755   1.32807  -0.93292
H     3.29643  -0.45373  -0.74152
H     3.54873   0.62160   0.66956
