25
Generated by autodE on: 2022-06-16. E = -443.993889 Ha. Imaginary frequency = -370.5 cm-1
C     2.49363   0.81407  -1.66058
C     1.72988   0.64050  -0.35830
O     2.38402   0.41430   0.68423
C     0.30945   0.69242  -0.48250
C    -0.03187  -1.62286  -1.22469
C    -1.30718  -1.79045  -0.72262
C    -1.85773   0.15646   0.11736
C    -2.98693  -0.07304   1.06799
N    -0.62747   0.54966   0.51833
C    -0.21207   0.25944   1.89112
H     1.85575   1.06439  -2.51914
H     3.03606  -0.12079  -1.87980
H     3.25219   1.60264  -1.52859
H    -0.10668   1.01907  -1.43286
H     0.13998  -1.39023  -2.27835
H     0.84344  -1.93972  -0.65341
H    -1.44957  -2.31805   0.22543
H    -2.16559  -1.79707  -1.40043
H    -2.12439   0.51394  -0.87858
H    -3.84190  -0.48280   0.51179
H    -3.31843   0.87180   1.53630
H    -2.73283  -0.77897   1.87173
H     0.68471   0.83276   2.13059
H     0.02020  -0.81355   1.99984
H    -1.01823   0.52608   2.58307
