19
Generated by autodE on: 2022-07-26. E = -473.725409 Ha
C    -2.03044   1.65112  -0.59173
N    -1.32503   0.54216   0.02096
C    -0.64904  -0.35680  -0.72251
O    -0.76853  -0.42874  -1.95373
C     0.18240  -1.35456   0.00620
C     0.10918  -2.77096  -0.46202
N     1.00908  -1.03851   0.98817
C     1.46934   0.12649   1.53816
C     1.28706   1.38733   0.97612
N     1.16548   2.46535   0.52491
H    -2.54784   2.21877   0.19104
H    -1.33431   2.32537  -1.11759
H    -2.77293   1.28833  -1.31759
H    -1.16472   0.57597   1.02251
H    -0.93699  -3.11069  -0.52861
H     0.65776  -3.44288   0.21430
H     0.54410  -2.86601  -1.47187
H     1.43948  -1.85644   1.43012
H     2.11804   0.00920   2.40396
