19
Generated by autodE on: 2022-05-29. E = -473.742090 Ha
C     3.79086  -0.33620   0.55678
N     2.49841  -0.84727   0.14726
C     1.39152  -0.08190   0.20584
O     1.42818   1.10021   0.60774
C     0.11142  -0.67771  -0.22150
C    -0.13426  -2.04885  -0.73765
N    -0.90207   0.16659  -0.10199
C    -2.21043  -0.00305  -0.38000
C    -3.11089   1.04595  -0.17148
N    -3.88286   1.91326  -0.00380
H     4.07499   0.54909  -0.03402
H     3.79066  -0.04459   1.61964
H     4.54486  -1.11800   0.40608
H     2.43017  -1.80937  -0.16115
H     0.78170  -2.64556  -0.81838
H    -0.60041  -2.00769  -1.73886
H    -0.83923  -2.59235  -0.08226
H    -0.59391   1.08111   0.26417
H    -2.55653  -0.96046  -0.76497
