16
Generated by autodE on: 2022-05-29. E = -644.713709 Ha
F     1.31511   0.97446   1.48003
C     1.44460   0.06423   0.48721
F     2.02926  -1.02327   1.01696
F     2.31736   0.59424  -0.39745
C     0.13601  -0.23610  -0.13317
C    -0.55164  -1.37945  -0.16207
C    -1.89955  -0.99607  -0.81640
C    -2.65434  -0.10987   0.20262
C    -1.96615   1.03447   0.23852
C    -0.80307   0.82751  -0.75839
O    -1.44929   0.00877  -1.74724
H    -0.28893  -2.35728   0.23874
H    -2.46061  -1.79744  -1.30793
H    -3.51931  -0.42490   0.78505
H    -2.11087   1.92035   0.85553
H    -0.33032   1.71602  -1.18959
