35
Generated by autodE on: 2022-05-29. E = -1118.441449 Ha. Imaginary frequency = -284.1 cm-1
C    -5.04041   1.31997  -0.03631
N    -4.13339   0.27762   0.40164
C    -3.22158  -0.26552  -0.43084
O    -3.26123  -0.09379  -1.65615
C    -2.22902  -1.19378   0.20426
C    -2.29113  -2.61221  -0.27559
N    -1.72624  -0.95786   1.42650
C    -1.29975   0.20988   1.98587
C    -1.84982   1.47776   1.72840
N    -2.23492   2.56849   1.54617
C     0.29555   0.57665   0.07707
C     1.48463  -0.22271   0.64672
O     0.97366  -1.56307   0.54746
C     0.66252  -1.49283  -0.85988
C     2.03369  -1.06366  -1.42142
C     2.55236  -0.27908  -0.47207
C     3.78644   0.53486  -0.49174
F     3.50149   1.85393  -0.38150
F     4.49907   0.37433  -1.61985
F     4.60742   0.24127   0.54092
C    -0.24505  -0.24182  -0.87861
H    -5.56328   1.01653  -0.95420
H    -5.78121   1.50336   0.75159
H    -4.49824   2.25923  -0.23892
H    -4.05327   0.10594   1.39812
H    -3.26412  -3.07300  -0.02803
H    -2.18890  -2.63484  -1.36983
H    -1.49178  -3.22221   0.16857
H    -1.23131  -1.75875   1.81925
H    -0.71919   0.09859   2.90174
H     0.19458   1.65568   0.16784
H     1.83388   0.01673   1.65616
H     0.25307  -2.43383  -1.23773
H     2.42489  -1.30172  -2.40976
H    -0.87469   0.03759  -1.71896
