20
Generated by autodE on: 2022-06-19. E = -457.715337 Ha
C    -3.06906   0.81719  -0.04993
N    -1.82975   0.05705  -0.05330
C    -1.85144  -1.29738  -0.40973
C    -0.73522  -2.03378  -0.52744
C     0.64778  -1.47916  -0.28934
C     0.57496   0.00190   0.04486
C     1.79267   0.79133   0.29096
N     2.96696   0.11775   0.20138
O     1.78036   2.00860   0.56596
C    -0.61888   0.65281   0.13584
H    -3.46355   0.95501  -1.07122
H    -3.83455   0.30108   0.54935
H    -2.88902   1.80539   0.39217
H    -2.84698  -1.71069  -0.58166
H    -0.83384  -3.08623  -0.80314
H     1.28496  -1.65332  -1.18020
H     1.15072  -2.04405   0.52269
H     3.01657  -0.86860  -0.01934
H     3.83087   0.62404   0.36129
H    -0.64186   1.71638   0.37848
