14
Generated by autodE on: 2022-06-19. E = -450.170010 Ha
C     1.73539   1.35407  -0.02993
C     1.37546  -0.08596  -0.16721
C     2.38950  -1.05302  -0.40317
N     3.25031  -1.81468  -0.59610
N     0.13977  -0.54807  -0.08409
C    -1.06097   0.07741   0.13056
C    -2.22144  -0.72860   0.15281
N    -3.19238  -1.37712   0.17407
C    -1.21981   1.46602   0.33136
N    -1.45119   2.59687   0.50722
H     1.22810   1.95511  -0.80114
H     2.81876   1.48034  -0.14159
H     1.43479   1.73728   0.95803
H     0.04349  -1.56182  -0.20244
