31
Generated by autodE on: 2022-12-30. E = -933.508657 Ha
C     3.76969  -0.61021  -1.40564
N     2.36206  -0.45056  -1.09566
C     1.95283   0.22565   0.00176
O     2.75946   0.75290   0.78072
C     0.49289   0.24556   0.23643
C    -0.34593   1.20536   0.71141
O    -0.25470   2.47545   1.03796
C     0.95626   3.20369   0.77526
C    -1.75590   0.58344   0.70308
C    -2.81895   1.16905   1.57805
O    -1.43546  -0.80298   0.95534
C    -0.47587  -0.91022  -0.06708
C     0.07751  -2.32847  -0.22091
C     0.53746  -2.97262   1.04533
O     0.11927  -2.83833  -1.31996
O    -1.26669  -0.54202  -1.26282
C    -2.08389   0.43946  -0.80971
O    -2.88142   1.03270  -1.48295
H     3.87112  -1.31995  -2.23585
H     4.23528   0.34595  -1.69678
H     4.31483  -1.00001  -0.53317
H     1.67906  -0.77551  -1.77228
H     0.73929   4.24691   1.03162
H     1.77783   2.81054   1.38612
H     1.21281   3.11881  -0.29147
H    -3.74383   0.58204   1.49245
H    -2.48685   1.18688   2.62502
H    -3.02155   2.19855   1.25104
H    -0.31909  -3.07444   1.73131
H     1.27304  -2.32419   1.54915
H     0.97418  -3.95556   0.83021
