16
Generated by autodE on: 2022-12-30. E = -533.353420 Ha
C     2.48577   1.73308  -0.03458
C     2.05923   0.29759   0.03144
O     2.82172  -0.65666   0.10131
C     0.61238   0.03898   0.01006
O     0.06094  -1.14229   0.06386
C    -1.38990  -0.97692   0.02335
O    -2.12305  -1.94629   0.06122
C    -1.53582   0.41953  -0.05735
C    -2.73644   1.27173  -0.13870
O    -0.29114   0.97861  -0.06189
H     3.58093   1.78485   0.00010
H     2.11623   2.19807  -0.96273
H     2.05474   2.29832   0.80732
H    -2.80027   1.96791   0.71428
H    -3.62399   0.62445  -0.12819
H    -2.74872   1.86796  -1.06646
