15
Generated by autodE on: 2022-12-30. E = -400.058506 Ha
C    -1.43687   0.66643  -2.18322
N    -2.05184   0.02200  -1.03684
C    -1.41332  -0.34922   0.09468
O    -1.99560  -0.90720   1.03802
C     0.00320  -0.05630   0.14428
C     1.19708   0.16711   0.22362
O     2.45436   0.42051   0.26657
C     3.16790   0.01782   1.46972
H    -2.21382   0.84938  -2.93577
H    -0.65726   0.03530  -2.63816
H    -0.98370   1.63292  -1.91307
H    -3.04452  -0.19428  -1.06665
H     4.21112   0.31083   1.30916
H     3.08489  -1.07053   1.59696
H     2.74577   0.54323   2.33767
