41
Generated by autodE on: 2022-06-06. E = -6254.549666 Ha
C     3.94120  -1.76974   2.30755
O     2.64450  -1.22213   2.01032
C     1.77561  -2.02014   1.40591
O     1.95692  -3.18233   1.13387
C     0.47703  -1.27025   1.13886
O    -0.47947  -2.18302   0.59226
C    -1.17771  -1.61653  -0.49249
C    -0.72661  -2.26543  -1.75586
N    -0.45822  -2.90213  -2.68578
C    -2.62333  -1.93165  -0.41417
N    -3.74644  -2.21296  -0.41600
C    -0.89684  -0.07117  -0.39844
Br   -1.11470   0.70893  -2.19099
C    -1.79964   0.64791   0.61069
C    -2.30364  -0.01571   1.74221
C    -3.01019   0.68425   2.72376
C    -3.21381   2.05870   2.60330
C    -2.71162   2.72921   1.48455
C    -2.01511   2.03165   0.49980
C     0.57915  -0.06780   0.17207
Br    1.90621  -0.57478  -1.25476
C     0.98444   1.26598   0.76591
C     0.94147   1.49919   2.14860
C     1.17848   2.77717   2.65979
C     1.46146   3.84119   1.80154
C     1.52101   3.61469   0.42344
C     1.28870   2.33867  -0.08829
H     3.84376  -2.63627   2.97621
H     4.44509  -2.07195   1.37852
H     4.49879  -0.96582   2.80013
H     0.09858  -0.93001   2.11210
H    -2.14661  -1.08227   1.89685
H    -3.39442   0.14182   3.58988
H    -3.75973   2.60509   3.37540
H    -2.85989   3.80522   1.37294
H    -1.62684   2.57977  -0.35634
H     0.71277   0.69813   2.84850
H     1.13739   2.93622   3.73941
H     1.64176   4.84047   2.20392
H     1.74999   4.43461  -0.26056
H     1.34160   2.18054  -1.16501
