41
Generated by autodE on: 2022-06-06. E = -6254.463573 Ha. Imaginary frequency = -296.4 cm-1
C     3.64559  -2.73783   1.59972
O     2.49661  -1.89990   1.80683
C     1.35805  -2.29171   1.24833
O     1.20435  -3.32823   0.63584
C     0.26384  -1.33136   1.54685
O    -0.97646  -1.63836   1.23506
C    -1.47258  -2.01863   0.05025
C    -0.78215  -2.63352  -1.01254
N    -0.34784  -3.08568  -1.99753
C    -2.87283  -1.87752  -0.05979
N    -4.02025  -1.71791  -0.19535
C    -0.59667   0.53476  -0.57680
Br   -0.66410   0.27358  -2.46305
C    -1.81926   1.04217   0.06546
C    -1.91902   1.12119   1.47774
C    -3.08261   1.57282   2.09051
C    -4.18391   1.96977   1.32444
C    -4.10617   1.90119  -0.06788
C    -2.94766   1.43791  -0.68801
C     0.64999   0.45856   0.08985
Br    2.19407  -0.14950  -0.93311
C     1.06216   1.53855   1.05048
C     1.90377   1.30194   2.14951
C     2.30301   2.35378   2.97513
C     1.88157   3.66072   2.71129
C     1.06947   3.91088   1.60179
C     0.66775   2.86137   0.77499
H     4.48204  -2.22188   2.08312
H     3.48344  -3.72298   2.05924
H     3.83821  -2.85908   0.52439
H     0.31564  -0.82433   2.51133
H    -1.08449   0.84115   2.11254
H    -3.12632   1.61766   3.18070
H    -5.09397   2.32766   1.81065
H    -4.95536   2.20515  -0.68337
H    -2.91763   1.39001  -1.77485
H     2.26312   0.29554   2.35705
H     2.95090   2.14787   3.83008
H     2.19414   4.48155   3.36069
H     0.74955   4.92958   1.37143
H     0.04523   3.07372  -0.09505
