47
Generated by autodE on: 2022-06-23. E = -1123.531802 Ha
C     4.02580   0.03778   1.33008
N     2.77971   0.52669   0.78144
C     2.39132   0.24124  -0.46945
O     3.12843  -0.32281  -1.28827
C     0.96478   0.68800  -0.86235
C     1.05834   1.45001  -2.19202
C    -0.00900  -0.54177  -1.02007
N     0.53174  -1.81541  -1.41798
C     0.86051  -2.02673  -2.81684
C     1.09063  -2.63296  -0.44987
C     0.88192  -2.47360   0.87043
C     0.05066  -1.35587   1.42203
C    -0.77077  -0.60894   0.32995
C    -2.14625  -1.26233   0.23229
N    -2.22604  -2.35381  -0.53670
O    -3.10016  -0.80551   0.87437
C    -0.91987   0.90438   0.67573
C    -1.04646   1.10932   2.13304
N    -1.12043   1.29793   3.27488
C    -2.14555   1.56116  -0.06548
C    -3.08258   2.42931   0.71403
O    -2.23594   1.41631  -1.26883
N     0.34591   1.46922   0.22224
C     0.48045   2.91465   0.23962
H     4.86143   0.26175   0.65078
H     3.99434  -1.05512   1.48241
H     4.21228   0.52405   2.29588
H     2.07582   0.94922   1.38109
H     1.74551   2.30482  -2.11832
H     1.43292   0.78369  -2.97872
H     0.06570   1.81591  -2.48586
H    -0.72827  -0.24168  -1.78902
H     1.84555  -1.61099  -3.08762
H     0.09486  -1.55115  -3.44696
H     0.86317  -3.10441  -3.03744
H     1.68421  -3.46458  -0.83689
H     1.32535  -3.18390   1.57006
H     0.69338  -0.63414   1.94927
H    -0.64587  -1.73079   2.18957
H    -3.11298  -2.84198  -0.61914
H    -1.42325  -2.65272  -1.08729
H    -2.51664   3.25244   1.18030
H    -3.85055   2.83640   0.04444
H    -3.54973   1.85387   1.52609
H     0.17157   3.29793   1.22425
H     1.53505   3.18785   0.09786
H    -0.11707   3.42910  -0.53530
