20
Generated by autodE on: 2022-06-23. E = -457.715341 Ha
C     3.15044  -0.41091  -0.04363
N     1.82299   0.17864   0.01803
C     1.67745   1.50528   0.44284
C     0.47857   2.08374   0.61618
C    -0.82581   1.36713   0.36816
C    -0.57009  -0.07549  -0.03671
C    -1.68260  -1.00334  -0.29748
N    -2.93029  -0.48713  -0.16412
O    -1.52205  -2.19776  -0.62146
C     0.69536  -0.56103  -0.17934
H     3.82613   0.22361  -0.63729
H     3.58629  -0.53474   0.96251
H     3.08902  -1.39648  -0.52191
H     2.61457   2.03552   0.62189
H     0.44670   3.12490   0.94524
H    -1.41109   1.89960  -0.40996
H    -1.46398   1.41556   1.27379
H    -3.09831   0.47594   0.09733
H    -3.72720  -1.09141  -0.33167
H     0.85080  -1.60059  -0.47224
