27
Generated by autodE on: 2022-07-27. E = -665.788285 Ha
C     4.24201  -1.18268  -1.01009
N     2.82871  -1.30314  -0.69852
C     2.01771  -0.23865  -0.70487
O     2.38135   0.91210  -0.95836
C     0.55637  -0.51199  -0.41786
C    -0.18739  -1.42426  -1.31388
N    -0.00530   0.11921   0.58278
C     0.79768   0.85562   1.57692
C    -1.41584   0.22958   0.69414
C    -1.98574   0.03948   1.96632
N    -2.47618  -0.12354   3.01741
C    -2.18739   0.71271  -0.41611
C    -3.67746   0.87883  -0.19018
O    -1.67686   1.01221  -1.51069
H     4.72199  -2.15549  -0.85284
H     4.39253  -0.87332  -2.05646
H     4.72153  -0.43596  -0.35947
H     2.44062  -2.22017  -0.49673
H     0.47206  -2.22661  -1.67166
H    -1.06628  -1.83807  -0.79670
H    -0.55746  -0.86413  -2.18909
H     0.28329   0.79323   2.54286
H     1.79245   0.40867   1.67513
H     0.87458   1.90743   1.27318
H    -3.87394   1.63513   0.58643
H    -4.14685   1.19886  -1.12957
H    -4.13643  -0.06344   0.14722
