47
Generated by autodE on: 2022-06-23. E = -1123.451307 Ha. Imaginary frequency = -374.7 cm-1
C     4.41983  -0.16522  -0.10982
N     2.99466   0.08699  -0.05328
C     2.36055   0.75150  -1.03256
O     2.96683   1.26111  -1.98402
C     0.83744   0.80793  -0.95061
C     0.23741   1.03493  -2.32294
C     0.09680  -1.16534  -0.70863
N     1.16945  -2.06560  -0.54599
C     1.94575  -2.40020  -1.72826
C     1.20088  -2.91010   0.55453
C     0.46093  -2.67203   1.65403
C    -0.30751  -1.37815   1.73453
C    -0.84970  -1.04209   0.36193
C    -2.30323  -1.26869   0.13960
N    -2.79517  -1.13913  -1.11428
O    -3.05388  -1.56398   1.08462
C    -0.98229   1.30546   0.57507
C    -1.20672   1.41144   1.98367
N    -1.43069   1.47123   3.12607
C    -2.15331   1.80723  -0.20842
C    -3.51818   1.65112   0.41651
O    -2.01880   2.41156  -1.26482
N     0.34186   1.47834   0.16556
C     1.25783   2.11195   1.14062
H     4.98798   0.77776  -0.11884
H     4.68875  -0.73259  -1.01657
H     4.71099  -0.74676   0.77353
H     2.43901  -0.43660   0.61435
H     0.40997   2.07777  -2.63118
H     0.73697   0.37625  -3.04489
H    -0.83521   0.84247  -2.35341
H    -0.29602  -1.20895  -1.72584
H     2.21076  -1.49246  -2.28684
H     1.38562  -3.06577  -2.41097
H     2.87624  -2.90163  -1.43185
H     1.85340  -3.77990   0.44989
H     0.45556  -3.37974   2.48445
H     0.37218  -0.57280   2.06635
H    -1.12528  -1.42686   2.46092
H    -3.80135  -1.18279  -1.23655
H    -2.22997  -0.84706  -1.90101
H    -3.68811   2.51217   1.08522
H    -4.27283   1.68210  -0.38036
H    -3.62779   0.73867   1.01496
H     1.61646   1.41572   1.90979
H     2.11292   2.54494   0.61167
H     0.72229   2.93602   1.62592
