41
Generated by autodE on: 2022-07-04. E = -3510.097706 Ha
C    -0.70066  -4.75862   0.61766
N    -0.44771  -3.38250   0.23565
C     0.73807  -2.99739  -0.25761
O     1.69553  -3.75792  -0.39911
C     0.84943  -1.51215  -0.64371
Br    0.52006  -1.50179  -2.65627
C    -0.10877  -0.61129  -0.04520
C    -0.50965   0.41611   0.45743
C    -0.49589   1.77539   0.97968
C    -1.67171   2.64992   0.50706
O    -1.72730   3.84784   0.82008
N    -2.59020   2.06347  -0.26666
C    -3.71556   2.80174  -0.80965
C    -0.38374   1.73098   2.53215
O    -0.00361   0.70707   3.10682
N    -0.65689   2.87380   3.17080
C    -0.51719   2.99355   4.60869
C     0.83013   2.40341   0.39446
C     2.10409   1.54811   0.54442
C     2.46384   0.55385  -0.59654
C     2.25588  -0.95288  -0.35908
H    -1.70236  -4.82596   1.05827
H     0.03881  -5.10265   1.35690
H    -0.64890  -5.43072  -0.25403
H    -1.19086  -2.69723   0.33106
H    -2.47232   1.08537  -0.51388
H    -4.28321   3.29380  -0.00571
H    -4.37562   2.10239  -1.33622
H    -3.38104   3.57774  -1.51637
H    -0.99191   3.65546   2.60677
H    -0.80033   4.00974   4.90876
H    -1.16487   2.27421   5.13461
H     0.52139   2.80630   4.92456
H     0.96495   3.37363   0.89228
H     0.64619   2.61134  -0.67138
H     2.09120   1.02316   1.51329
H     2.93391   2.26786   0.61274
H     3.53935   0.67178  -0.79722
H     1.95856   0.85170  -1.53036
H     2.96583  -1.53933  -0.95840
H     2.46562  -1.19350   0.69767
