32
Generated by autodE on: 2022-07-04. E = -880.312253 Ha
C    -2.10648  -3.31652   1.16529
O    -1.40492  -2.15876   0.71160
C    -2.17823  -1.10523   0.32139
O    -3.40406  -1.17079   0.33702
C    -1.38529   0.01430  -0.10724
O    -0.01457  -0.15631   0.11298
C     0.93675   0.21126  -0.67653
C     0.64755   0.72308  -2.02733
C     2.27196   0.01381  -0.14173
C     3.40689   0.46611  -0.84934
C     4.68127   0.27283  -0.32280
C     4.84193  -0.37774   0.90518
C     3.72201  -0.83136   1.61584
C     2.44557  -0.63220   1.10525
C    -1.82818   1.35412  -0.35654
O    -1.08334   2.33679  -0.39711
O    -3.16529   1.46729  -0.53885
C    -3.66595   2.79487  -0.71030
H    -1.33745  -4.05273   1.43030
H    -2.75436  -3.72253   0.37363
H    -2.72308  -3.08747   2.04787
H    -0.28696   0.26088  -2.38677
H     0.46299   1.80943  -1.98806
H     1.47317   0.51773  -2.71684
H     3.29365   0.97947  -1.80419
H     5.55404   0.63052  -0.87235
H     5.84365  -0.53060   1.31311
H     3.85082  -1.33903   2.57380
H     1.57090  -0.98069   1.65442
H    -4.75186   2.69403  -0.82898
H    -3.23469   3.26786  -1.60541
H    -3.44299   3.41986   0.16773
