32
Generated by autodE on: 2022-07-27. E = -880.310963 Ha
C     0.80204   3.60575   3.10978
O     0.11942   2.40700   2.73927
C     0.48094   1.85661   1.55585
O     1.34729   2.36428   0.84153
C    -0.21637   0.64422   1.23274
O     0.13381   0.22234  -0.06004
C     0.38268  -0.97931  -0.44586
C     0.40700  -2.10515   0.50750
C     0.68145  -1.10724  -1.86057
C     0.80555  -2.38016  -2.45803
C     1.08574  -2.48726  -3.81763
C     1.25573  -1.33428  -4.59178
C     1.13947  -0.06569  -4.00663
C     0.84672   0.05259  -2.65390
C    -1.38861   0.10896   1.86154
O    -1.80514   0.38766   2.98395
O    -2.05509  -0.76076   1.05319
C    -3.18953  -1.41669   1.61889
H     0.39560   3.89495   4.08691
H     1.88625   3.43521   3.19240
H     0.62163   4.40836   2.37865
H     1.16370  -2.84176   0.21261
H     0.61060  -1.72215   1.51931
H    -0.57554  -2.60296   0.53658
H     0.66782  -3.28485  -1.86534
H     1.17250  -3.47380  -4.27678
H     1.47961  -1.42287  -5.65728
H     1.27739   0.83148  -4.61329
H     0.75941   1.03470  -2.18889
H    -3.97668  -0.69237   1.87676
H    -3.55699  -2.10617   0.84887
H    -2.91044  -1.97954   2.52230
