73
Generated by autodE on: 2022-07-04. E = -4390.397365 Ha. Imaginary frequency = -292.0 cm-1
C     7.07107  13.39636   3.54264
N     5.89461  12.73133   4.06570
C     5.22952  13.21163   5.12876
O     5.50606  14.27235   5.68311
C     4.00119  12.33733   5.52798
Br    3.41094  12.79200   7.37575
C     2.85977  12.70075   4.54322
C     1.50177  12.01471   4.70018
C     1.42788  10.48520   4.54159
C     2.17858   9.91251   3.32755
C     3.55718   9.18898   3.64382
C     3.18752   7.74013   4.02009
O     3.06853   6.83562   3.17997
N     2.88822   7.54649   5.31151
C     2.52650   6.23791   5.82078
C     4.40388   9.38113   2.35629
O     5.06767  10.42004   2.22677
N     4.26512   8.45732   1.40452
C     4.94215   8.51618   0.12646
C     4.26090   9.88839   4.74071
C     4.32775  10.91675   5.42407
C     6.13297  10.42859   7.06083
C     6.98423  11.62513   7.20201
O     7.91956  11.88240   6.45202
O     6.61932  12.43577   8.19541
C     7.32716  13.67229   8.31568
C     5.28972   9.95813   8.19318
O     5.45106  10.29301   9.35293
O     4.28241   9.14950   7.82960
C     3.42827   8.67775   8.87896
O     6.66805   9.63531   6.11515
C     6.33189   8.59929   5.39878
C     5.83851   7.34657   6.04031
C     7.03681   8.54848   4.11005
C     6.91002   7.43617   3.25495
C     7.56082   7.41652   2.02123
C     8.34363   8.50160   1.61908
C     8.47765   9.61180   2.46333
C     7.83319   9.63823   3.69520
H     6.84253  14.42505   3.22105
H     7.43749  12.82756   2.67883
H     7.86649  13.44205   4.30276
H     5.60698  11.84775   3.63607
H     2.71899  13.79084   4.60965
H     3.26057  12.50020   3.53820
H     1.06424  12.28909   5.67283
H     0.85325  12.47201   3.93390
H     0.36304  10.22146   4.44747
H     1.76595   9.99653   5.46521
H     2.38813  10.71579   2.60701
H     1.55980   9.17682   2.79402
H     3.12650   8.27646   5.97853
H     3.35083   5.51665   5.69586
H     2.29143   6.32604   6.88823
H     1.64551   5.84528   5.29191
H     3.74613   7.61930   1.68335
H     5.65516   9.34841   0.12865
H     5.48760   7.57977  -0.05933
H     4.22350   8.66745  -0.69567
H     6.88874  14.18317   9.18119
H     7.18905  14.27890   7.41071
H     8.39908  13.49386   8.48615
H     2.68835   8.03073   8.39382
H     2.92690   9.52425   9.36942
H     4.00293   8.10960   9.62419
H     5.39380   6.66153   5.31414
H     5.13973   7.53015   6.85596
H     6.73175   6.84585   6.45924
H     6.28535   6.58989   3.53833
H     7.44789   6.54970   1.36709
H     8.84512   8.48591   0.64885
H     9.08731  10.46423   2.15507
H     7.93424  10.50301   4.34900
