14
Generated by autodE on: 2022-05-28. E = -324.833487 Ha
C     2.75576   1.05732   1.26257
C     1.57258   0.43760   0.68995
C     0.57868  -0.07282   0.21140
C    -0.55881  -0.78038  -0.35871
O    -0.50504  -2.00292  -0.55631
N    -1.65227  -0.04658  -0.65327
C    -1.84259   1.37789  -0.46658
H     2.53032   1.47742   2.25627
H     3.57210   0.32630   1.37448
H     3.11283   1.87970   0.62172
H    -2.42354  -0.58220  -1.04616
H    -0.92985   1.82467  -0.05476
H    -2.06959   1.87166  -1.42440
H    -2.67203   1.57702   0.23029
