10
Generated by autodE on: 2022-05-28. E = -193.129736 Ha
C     1.44866   0.22626   0.39542
O     0.58084  -0.62260  -0.12279
C    -0.69577  -0.46609  -0.33097
C    -1.34883   0.80168   0.03105
H     1.12766   1.21540   0.71898
H     2.46510  -0.15413   0.46203
H    -1.17645  -1.33598  -0.77682
H    -0.88756   1.66215  -0.50132
H    -1.22635   1.02651   1.11316
H    -2.42099   0.77360  -0.20504
