25
Generated by autodE on: 2022-06-02. E = -3038.455750 Ha
C     1.74233  -1.58134   1.45324
C     1.41593  -1.09187   0.07232
O     1.95793  -1.52163  -0.92607
C     0.30805  -0.02038  -0.05916
Br    1.34931   1.68825   0.36908
C    -0.78388  -0.20546   0.86307
C    -1.90611  -0.55916   1.16726
C    -3.27143  -1.03485   1.00696
C    -3.34682  -1.69214  -0.39538
C    -2.74762  -0.87159  -1.55941
C    -1.23426  -1.02962  -1.88572
C    -0.26186   0.10361  -1.48077
H     2.74400  -2.03049   1.46244
H     1.00460  -2.35848   1.71596
H     1.66283  -0.78528   2.20561
H    -3.96735  -0.18048   1.06619
H    -3.57070  -1.74952   1.78959
H    -2.84680  -2.67411  -0.35140
H    -4.41033  -1.89090  -0.60381
H    -2.98987   0.19692  -1.42194
H    -3.29579  -1.18055  -2.46312
H    -1.14704  -1.10410  -2.98074
H    -0.86480  -1.99452  -1.50017
H    -0.77405   1.07306  -1.56308
H     0.59182   0.12038  -2.17243
