23
Generated by autodE on: 2022-07-27. E = -534.180737 Ha
C    -0.68140  -1.40649   3.14825
N    -0.41307  -0.94361   1.79992
C     0.77549  -1.19408   1.20673
O     1.69126  -1.78174   1.80272
C     0.97600  -0.79082  -0.20872
C     2.07687  -1.47620  -0.95003
N     0.27998   0.14165  -0.82807
C    -0.69661   1.03190  -0.50365
C    -1.13130   1.85986  -1.57673
C    -2.17852   2.90639  -1.28657
O    -0.66443   1.73521  -2.73526
H     0.08669  -1.03606   3.84277
H    -0.68937  -2.50782   3.20908
H    -1.66034  -1.02625   3.46476
H    -1.19603  -0.62062   1.24188
H     2.09169  -1.16743  -2.00463
H     1.96349  -2.57094  -0.89949
H     3.05446  -1.23579  -0.50024
H     0.51847   0.27527  -1.82623
H    -1.04602   1.14017   0.51712
H    -3.04586   2.74638  -1.94777
H    -2.51371   2.89423  -0.24024
H    -1.77195   3.90303  -1.52529
