23
Generated by autodE on: 2022-06-02. E = -534.192333 Ha
C    -4.12315   0.74589  -0.43207
N    -3.02244  -0.12487  -0.07211
C    -1.74254   0.27038  -0.20884
O    -1.44081   1.39260  -0.65945
C    -0.68205  -0.67953   0.19861
C    -0.86016  -2.06419   0.70996
N     0.52992  -0.17594   0.08123
C     1.74924  -0.68448   0.35572
C     2.86400   0.16595   0.08996
C     4.24482  -0.36417   0.39306
O     2.71976   1.31843  -0.37809
H    -4.05191   1.05773  -1.48576
H    -5.06563   0.20485  -0.28569
H    -4.13710   1.65706   0.18826
H    -3.22926  -1.02562   0.34252
H    -1.89874  -2.40974   0.65005
H    -0.53050  -2.14014   1.76191
H    -0.23768  -2.76755   0.12942
H     0.55152   0.78890  -0.29110
H     1.83327  -1.68921   0.76198
H     4.73519   0.29924   1.12450
H     4.23192  -1.38947   0.78766
H     4.85443  -0.33591  -0.52498
