48
Generated by autodE on: 2022-06-02. E = -3572.635777 Ha. Imaginary frequency = -249.9 cm-1
C    -1.68928  -3.61020   1.73773
N    -1.27918  -3.14819   0.42683
C     0.00668  -3.20624   0.02697
O     0.86134  -3.81373   0.69167
C     0.37819  -2.56206  -1.27048
C     1.41549  -3.27748  -2.08123
N    -0.43117  -1.70980  -1.91664
C    -1.27292  -0.77735  -1.41555
C    -1.77832   0.18129  -2.37930
C    -2.95099   1.03082  -1.96444
O    -1.30559   0.25093  -3.52523
C     0.52140   0.08507   0.04266
C     1.39550  -0.79848  -0.04123
C     2.74836  -1.30170   0.25748
C     3.63883  -0.21440   0.88494
C     3.29409   0.20602   2.31955
C     1.86567   0.70419   2.60570
C     1.34063   1.78848   1.63619
C     0.15094   1.28209   0.79321
Br   -0.33680   2.79663  -0.49038
C    -1.13114   1.10317   1.64168
C    -1.48268   2.17982   2.63127
O    -1.79616   0.08789   1.55142
H    -1.12572  -3.09115   2.52946
H    -1.52661  -4.69318   1.85816
H    -2.75733  -3.39665   1.86720
H    -1.97771  -2.72635  -0.17178
H     1.78374  -2.64438  -2.90160
H     2.26103  -3.56308  -1.44358
H     1.00638  -4.20868  -2.51211
H    -0.14906  -1.47327  -2.87527
H    -1.76112  -0.90536  -0.45950
H    -2.88898   2.02350  -2.43043
H    -3.03703   1.12671  -0.87440
H    -3.86719   0.53844  -2.33652
H     3.22437  -1.66792  -0.66686
H     2.66847  -2.17837   0.92032
H     3.63253   0.66549   0.22032
H     4.67714  -0.58623   0.88433
H     4.00516   1.00016   2.60692
H     3.49552  -0.64174   2.99721
H     1.17585  -0.15387   2.61442
H     1.84774   1.10438   3.63151
H     2.12771   2.09866   0.93536
H     1.04028   2.69223   2.18188
H    -1.22296   3.18723   2.28416
H    -2.55296   2.11645   2.86734
H    -0.91322   1.98283   3.55583
