58
Generated by autodE on: 2022-10-08. E = -1297.152862 Ha
C     2.83047  -3.59012   1.49731
N     2.55206  -2.42088   0.67931
C     2.12589  -1.28416   1.21869
O     1.91962  -1.13739   2.43137
C     1.79246  -0.08876   0.25737
C     3.06200   0.36228  -0.53149
O     4.16067  -0.14383  -0.30416
N     2.82494   1.32878  -1.42074
C     3.89901   1.94854  -2.17299
N     1.34387   0.99426   1.18801
C    -0.00709   1.52614   0.72844
N     0.32275   2.54338  -0.25156
N    -0.66977   1.99396   1.91781
C    -2.08248   2.34341   1.79563
C    -0.60151   0.24880  -0.01231
C    -1.57071   0.68135  -1.12859
C    -2.95466   0.72048  -0.90674
C    -3.82921   1.15893  -1.90342
C    -3.33540   1.55986  -3.14755
C    -1.95915   1.51716  -3.38378
C    -1.08589   1.08336  -2.38345
C    -1.23344  -0.84358   0.87946
C    -1.14311  -0.89695   2.27740
C    -1.63404  -1.99581   2.99067
C    -2.22585  -3.06894   2.32430
C    -2.33374  -3.02673   0.93092
C    -1.84715  -1.92853   0.22218
N     0.65399  -0.26131  -0.61126
C     0.65470  -1.40625  -1.49771
H     1.96362  -3.82389   2.13178
H     3.70352  -3.42373   2.14844
H     3.03298  -4.44102   0.83644
H     2.81962  -2.43452  -0.29940
H     1.89171   1.75888  -1.40268
H     4.55246   2.55465  -1.52351
H     3.46537   2.59666  -2.94427
H     4.51843   1.18025  -2.65775
H     2.02692   1.75934   1.26950
H     1.29320   0.52316   2.12245
H     0.68071   3.36621   0.24080
H    -0.52219   2.83593  -0.74173
H    -0.15597   2.81751   2.23532
H    -2.70804   1.44160   1.80195
H    -2.35935   2.94279   2.67333
H    -2.32162   2.93253   0.89196
H    -3.36205   0.39968   0.05056
H    -4.90294   1.18229  -1.70396
H    -4.01907   1.89912  -3.92921
H    -1.55745   1.82194  -4.35283
H    -0.01529   1.05871  -2.57866
H    -0.71140  -0.06498   2.82614
H    -1.55183  -2.00285   4.08012
H    -2.60751  -3.92663   2.88308
H    -2.80431  -3.85063   0.38939
H    -1.96366  -1.91265  -0.86070
H     0.48567  -2.36922  -0.98771
H     1.62253  -1.45546  -2.02161
H    -0.12340  -1.28321  -2.26045
