45
Generated by autodE on: 2022-10-08. E = -1051.887739 Ha
C    -3.22552   2.39878   2.58665
N    -2.38852   1.83434   1.54813
C    -2.59802   0.55627   1.09032
O    -3.59255  -0.08410   1.52899
C    -1.65711   0.01530   0.14738
C    -1.61035  -1.37604  -0.27965
O    -0.77679  -1.79798  -1.11957
N    -2.52412  -2.22073   0.26912
C    -2.69315  -3.56710  -0.22494
N    -0.66793   0.84980  -0.44199
C    -1.14357   1.91673  -1.34040
C     0.60622   0.50480  -0.38420
C     1.56258   0.95482  -1.41346
C     1.29970   0.71543  -2.77422
C     2.22729   1.10022  -3.74176
C     3.41564   1.73390  -3.36270
C     3.68651   1.96376  -2.00920
C     2.77336   1.56116  -1.03493
C     1.12096  -0.34458   0.70623
C     0.72780  -0.13565   2.04216
C     1.27413  -0.91113   3.06108
C     2.20341  -1.91708   2.76258
C     2.59804  -2.12960   1.43955
C     2.06864  -1.34060   0.41627
H    -4.28577   2.37069   2.29444
H    -3.12977   1.86219   3.54748
H    -2.93671   3.44653   2.74352
H    -1.48056   2.25981   1.40094
H    -3.24436  -1.76919   0.83637
H    -3.10037  -3.59980  -1.25254
H    -3.38642  -4.10665   0.43434
H    -1.73396  -4.10693  -0.23551
H    -1.45229   1.48529  -2.30180
H    -2.01557   2.38514  -0.87240
H    -0.36125   2.66823  -1.49588
H     0.38389   0.19749  -3.06170
H     2.02432   0.89970  -4.79601
H     4.13717   2.04062  -4.12337
H     4.61680   2.45241  -1.71160
H     2.98617   1.72760   0.02265
H     0.01002   0.64847   2.28168
H     0.97626  -0.72986   4.09612
H     2.62296  -2.52862   3.56471
H     3.32324  -2.91062   1.20102
H     2.37371  -1.50711  -0.61775
