58
Generated by autodE on: 2022-10-08. E = -1297.099917 Ha. Imaginary frequency = -426.8 cm-1
C     1.64102  -3.52916   2.32839
N     1.71256  -2.63438   1.18839
C     1.40965  -1.33281   1.31195
O     1.21277  -0.79179   2.39798
C     1.46565  -0.60331  -0.04280
C     2.78256  -0.88311  -0.74925
O     2.83165  -1.79932  -1.57448
N     3.83119  -0.15704  -0.35929
C     5.15963  -0.39198  -0.90072
N     1.31453   1.54828   1.03200
C     0.03952   1.96335   0.65364
N     0.10005   2.90594  -0.40052
N    -0.85076   2.38492   1.68319
C    -0.44057   2.24960   3.07278
C    -0.75692   0.28644  -0.11845
C    -1.90441   0.61547  -1.05735
C    -2.19154  -0.20977  -2.16099
C    -3.30569   0.02847  -2.96611
C    -4.17314   1.08629  -2.67512
C    -3.92021   1.88884  -1.56095
C    -2.80332   1.65046  -0.75441
C    -1.33889  -0.72029   0.86591
C    -2.12633  -0.33504   1.96031
C    -2.72273  -1.29307   2.78316
C    -2.57334  -2.65613   2.51288
C    -1.84420  -3.05031   1.38783
C    -1.24693  -2.09249   0.56602
N     0.44368  -0.17536  -0.75967
C     0.75966   0.30451  -2.12818
H     0.60493  -3.61386   2.69559
H     2.27028  -3.15609   3.14896
H     1.99682  -4.51967   2.02151
H     1.79746  -3.03175   0.25599
H     3.69890   0.56782   0.33881
H     5.86088   0.29995  -0.42075
H     5.17545  -0.22355  -1.98816
H     5.48147  -1.42634  -0.70642
H     1.43137   1.16094   1.96408
H     2.08682   2.10671   0.68031
H     0.74575   2.62853  -1.13641
H    -0.81101   3.07923  -0.82121
H    -1.15802   3.33263   1.47855
H    -0.26816   1.19541   3.32827
H     0.47521   2.81971   3.32028
H    -1.25595   2.61373   3.71353
H    -1.54498  -1.05846  -2.38951
H    -3.50098  -0.62368  -3.82060
H    -5.04649   1.27291  -3.30416
H    -4.59899   2.70623  -1.30671
H    -2.64721   2.26148   0.13298
H    -2.27637   0.72260   2.15659
H    -3.31725  -0.96663   3.63989
H    -3.03940  -3.40336   3.15924
H    -1.74488  -4.10903   1.13768
H    -0.70786  -2.42138  -0.32259
H     1.71548   0.84293  -2.12163
H     0.83002  -0.55411  -2.80495
H    -0.02315   0.97757  -2.47659
