22
Generated by autodE on: 2022-06-01. E = -666.232493 Ha
C     3.49781   0.98850  -0.37405
C     2.62559  -0.19988  -0.09791
O     3.06270  -1.32406   0.09631
C     1.16797   0.08001  -0.07531
O     0.74706   1.32885  -0.29124
C    -0.67420   1.36370  -0.22478
O    -1.26276   2.41136  -0.39418
C    -1.04455   0.01314   0.05217
C    -2.38448  -0.51926   0.22273
C    -3.51851   0.46773   0.09847
O    -2.59823  -1.71173   0.45658
N     0.13481  -0.72335   0.13107
C     0.20936  -2.16362   0.40039
H     3.33635   1.76397   0.39177
H     4.54718   0.66980  -0.37433
H     3.23529   1.43489  -1.34647
H    -3.41442   1.27612   0.83887
H    -4.46736  -0.06194   0.25280
H    -3.51149   0.94483  -0.89395
H    -0.33590  -2.69744  -0.38594
H    -0.26810  -2.36611   1.36534
H     1.26036  -2.45490   0.41381
