22
Generated by autodE on: 2022-06-01. E = -574.845905 Ha
C     3.54329   0.56323   0.68857
O     2.16659   0.70619   0.32232
C     1.46381  -0.43103   0.14607
O     1.96288  -1.53813   0.28651
C     0.08045  -0.14953  -0.21722
C    -0.97293  -0.99442  -0.26680
C    -1.11224  -2.44478  -0.01156
C    -2.18065  -0.07023  -0.56673
C    -2.42244   0.76708   0.70827
C    -1.38348   1.60608   0.76426
C    -0.52258   1.25495  -0.46938
O    -1.55276   0.90705  -1.41392
H     3.63749   0.02734   1.64466
H     3.93886   1.58104   0.78646
H     4.09671   0.01521  -0.08835
H    -1.83578  -2.60494   0.80771
H    -0.15623  -2.91349   0.24915
H    -1.53607  -2.94805  -0.89774
H    -3.04831  -0.54329  -1.03952
H    -3.24431   0.62153   1.40821
H    -1.12102   2.34196   1.52357
H     0.15436   2.02288  -0.85507
