21
Generated by autodE on: 2022-05-29. E = -607.924991 Ha
C     3.74095  -0.33263   0.52706
N     2.39343   0.05094   0.15654
C     1.37187  -0.82076   0.06560
O     1.46937  -2.03845   0.26872
C     0.04287  -0.26814  -0.28754
C    -0.54085   0.93447  -0.09459
C    -0.01057   2.12084   0.44942
N     0.40422   3.09813   0.88095
C    -2.03711   0.71267  -0.49399
C    -2.64212  -0.20669   0.58723
C    -2.05487  -1.39148   0.39711
C    -1.10245  -1.17368  -0.79682
O    -1.84590  -0.21455  -1.56608
H     3.77466  -1.41875   0.66900
H     4.45646  -0.05152  -0.26075
H     4.04518   0.15864   1.46480
H     2.21971   1.02867  -0.05497
H    -2.59541   1.60533  -0.79135
H    -3.34658   0.11336   1.35354
H    -2.13763  -2.31704   0.96479
H    -0.80074  -2.04765  -1.38109
