17
Generated by autodE on: 2022-05-29. E = -456.186956 Ha
N     4.34155   1.28903   0.71156
C     3.45558   0.52512   0.70117
C     2.46315  -0.45165   0.88835
N     1.56173  -0.75259   0.10289
C     0.53642  -1.11476  -0.56238
C    -0.77580  -0.48990  -0.41402
C    -1.84434  -0.97711  -1.19038
C    -3.11438  -0.41337  -1.06892
C    -3.33294   0.63956  -0.17419
C    -2.27321   1.12895   0.60037
C    -1.00109   0.57279   0.48310
H     0.66465  -1.93400  -1.27943
H    -1.67000  -1.80138  -1.88592
H    -3.93807  -0.79769  -1.67478
H    -4.32785   1.08067  -0.08036
H    -2.44109   1.95230   1.29834
H    -0.17641   0.96122   1.08507
