38
Generated by autodE on: 2022-05-29. E = -1064.113897 Ha. Imaginary frequency = -253.8 cm-1
C     5.14841   0.70731  -2.75785
N     4.35699   0.11418  -1.69680
C     3.01546   0.19331  -1.69580
O     2.36622   0.74584  -2.59524
C     2.28819  -0.40271  -0.55251
C     2.57969  -0.51601   0.76292
C     3.75381  -0.16489   1.45987
N     4.71831   0.10797   2.05553
C     1.24239  -0.97807   1.42295
O     0.74543  -1.80780   0.36833
C     0.79953  -0.80122  -0.65539
C    -0.00451   0.33461   0.00468
C    -2.30538  -0.75802  -0.17299
C    -3.11499   0.33607  -0.69434
C    -3.74378   1.26890   0.15432
C    -4.45810   2.33564  -0.38735
C    -4.55710   2.48815  -1.77636
C    -3.93697   1.56362  -2.62437
C    -3.22232   0.49225  -2.08980
N    -2.27273  -1.06635   1.09273
C    -1.65712  -0.97916   2.15353
C    -1.90608  -1.51516   3.42220
N    -1.95390  -1.88101   4.53215
C     0.27530   0.22059   1.33458
H     4.88477   0.27587  -3.73641
H     4.98690   1.79535  -2.81262
H     6.20902   0.51429  -2.55848
H     4.82977  -0.37479  -0.94343
H     1.32927  -1.50768   2.37627
H     0.46899  -1.17285  -1.62980
H    -0.40905   1.18748  -0.53472
H    -1.93755  -1.51987  -0.86803
H    -3.67014   1.15285   1.23783
H    -4.94357   3.05425   0.27700
H    -5.11920   3.32540  -2.19620
H    -4.01272   1.67808  -3.70812
H    -2.73404  -0.23035  -2.74798
H     0.16647   0.96774   2.11743
