44
Generated by autodE on: 2022-05-30. E = -1062.633989 Ha
C     3.98773  -0.01811   0.68999
C     3.13624   0.75411  -0.26903
O     3.55461   1.17225  -1.33517
C     1.66364   1.01299   0.11128
C     1.37900   2.50457  -0.09802
O     1.46791   0.60992   1.45228
C     0.12979   0.12694   1.70427
C     0.26513  -0.95755   2.76895
C    -0.71152   1.27012   2.28191
C    -0.39125  -0.39926   0.30037
C    -1.84217  -0.02696   0.04923
C    -2.84783  -0.89313   0.51542
C    -4.20089  -0.57669   0.37487
C    -4.58256   0.62008  -0.23740
C    -3.59498   1.49466  -0.69704
C    -2.24134   1.17803  -0.55135
C    -0.16554  -1.95461   0.12037
C    -0.67413  -2.33263  -1.26323
C     0.24649  -1.87526  -2.11930
C     1.30863  -1.23291  -1.24293
O     1.25837  -2.02213  -0.05499
C     0.70136   0.11276  -0.72242
F     0.22627   0.81449  -1.81653
H     4.03341   0.50852   1.65589
H     4.99560  -0.14505   0.27451
H     3.52370  -0.99604   0.88953
H     1.97702   3.08021   0.62371
H     0.31985   2.73733   0.05948
H     1.66062   2.80461  -1.11448
H    -0.71159  -1.41694   2.97867
H     0.97328  -1.73840   2.46541
H     0.63557  -0.50407   3.70048
H    -1.68963   0.90205   2.62108
H    -0.17731   1.68802   3.14811
H    -0.88743   2.07631   1.56149
H    -2.57884  -1.82915   1.00714
H    -4.95828  -1.27012   0.74826
H    -5.63995   0.87014  -0.35181
H    -3.87602   2.43795  -1.17178
H    -1.49573   1.88380  -0.90884
H    -0.49003  -2.57971   0.95420
H    -1.63262  -2.80384  -1.47486
H     0.23593  -1.86893  -3.20837
H     2.32098  -1.16583  -1.65177
