21
Generated by autodE on: 2022-05-30. E = -424.561382 Ha
C     2.15429   0.15390   1.18458
C     1.77358  -0.01840  -0.28097
O     2.68626  -0.10730  -1.14681
C     0.40280  -0.07373  -0.62188
C    -0.10153  -0.21449  -2.02013
O    -0.41834   0.06120   0.46363
C    -1.67901   0.06653   0.67962
C    -2.71187  -0.12968  -0.37394
C    -2.07211   0.25981   2.09874
H     1.76336   1.09817   1.59611
H     1.75439  -0.66024   1.80937
H     3.25016   0.15830   1.26013
H    -0.73434  -1.10211  -2.17648
H     0.78599  -0.32186  -2.65809
H    -0.65979   0.66776  -2.37499
H    -3.70794  -0.01565   0.07188
H    -2.60679   0.59587  -1.19286
H    -2.63970  -1.14049  -0.80699
H    -2.69016  -0.59023   2.43853
H    -2.70463   1.16034   2.19509
H    -1.19144   0.35821   2.74635
