44
Generated by autodE on: 2022-05-30. E = -1062.529367 Ha. Imaginary frequency = -209.8 cm-1
C     3.87993  -0.25302   0.67185
C     3.16787   0.89590  -0.01383
O     3.72024   1.49420  -0.96147
C     1.85430   1.26876   0.43445
C     1.28026   2.61065   0.10967
O     1.42639   0.51224   1.47672
C     0.27320   0.37604   2.05110
C     0.17302  -0.80802   2.94657
C    -0.73239   1.46291   2.20526
C    -0.57496  -0.58405  -0.32520
C    -1.94361  -0.11518  -0.16570
C    -2.89096  -0.91393   0.51161
C    -4.20393  -0.47523   0.69321
C    -4.60874   0.77046   0.20401
C    -3.68297   1.57058  -0.47662
C    -2.37122   1.13743  -0.66146
C    -0.15602  -2.06572  -0.13238
C    -0.42758  -2.76898  -1.48155
C     0.50444  -2.29233  -2.31513
C     1.33796  -1.31240  -1.45591
O     1.28035  -1.96536  -0.18037
C     0.42603  -0.11893  -1.14396
F     0.32197   0.87762  -2.03796
H     4.09100  -0.00113   1.72394
H     4.82750  -0.44040   0.14939
H     3.26838  -1.16495   0.67420
H     1.24443   3.25915   1.00139
H     0.27581   2.57682  -0.33061
H     1.94808   3.07678  -0.62601
H    -0.80412  -1.29692   2.80509
H     0.97827  -1.52612   2.74881
H     0.21786  -0.49295   4.00546
H    -1.71417   1.01820   2.41425
H    -0.45097   2.06650   3.08894
H    -0.82099   2.12900   1.34636
H    -2.59656  -1.88740   0.90683
H    -4.91555  -1.11280   1.22372
H    -5.63499   1.11509   0.35010
H    -3.98648   2.54521  -0.86711
H    -1.66416   1.77669  -1.18933
H    -0.49098  -2.57337   0.77639
H    -1.25425  -3.45072  -1.67884
H     0.65084  -2.47587  -3.37895
H     2.35976  -1.08956  -1.77982
