21
Generated by autodE on: 2022-06-16. E = -437.784879 Ha
C    -2.82307   0.29795  -0.66817
C    -1.39635   0.08864  -0.30663
N    -0.45692   0.11883  -1.18204
N     0.75230  -0.12977  -0.51400
C     1.89153   0.07213  -1.15014
N     2.91953   0.20580  -1.69461
C     0.60414  -0.06054   0.97055
C     1.14566   1.24750   1.52578
C    -0.92743  -0.21830   1.10195
C    -1.37173  -1.61281   1.55652
H    -3.42121  -0.58945  -0.40363
H    -3.23738   1.14484  -0.09637
H    -2.93362   0.49713  -1.74253
H     1.13532  -0.91533   1.41168
H     0.61599   2.10705   1.08569
H     2.22171   1.35124   1.31639
H     1.00562   1.27206   2.61728
H    -1.32937   0.53335   1.79960
H    -0.98097  -1.82625   2.56315
H    -0.99696  -2.38704   0.86862
H    -2.46895  -1.68576   1.59380
