12
Generated by autodE on: 2022-06-16. E = -157.300301 Ha
C     1.96306   0.02765   0.05885
C     0.52083  -0.31317   0.28173
C    -0.52083   0.31324  -0.28165
C    -1.96306  -0.02769  -0.05890
H     2.07990   0.87595  -0.63384
H     2.51818  -0.83276  -0.35551
H     2.46463   0.28747   1.00803
H     0.32035  -1.14976   0.96576
H    -0.32035   1.14981  -0.96571
H    -2.51836   0.83282   0.35500
H    -2.07992  -0.87574   0.63409
H    -2.46444  -0.28797  -1.00807
