21
Generated by autodE on: 2022-06-16. E = -437.688091 Ha. Imaginary frequency = -388.4 cm-1
C    -2.79580   0.41487  -0.71383
C    -1.36823   0.12460  -0.59606
N    -0.35184  -0.07635  -1.20615
N     0.85783  -0.52221  -0.97798
C     1.86722   0.16543  -1.46848
N     2.85805   0.69229  -1.81897
C     0.48813  -0.08132   1.55864
C     1.10626   1.27636   1.63747
C    -0.86254  -0.30743   1.55577
C    -1.45031  -1.68566   1.72702
H    -3.38364  -0.43247  -0.32901
H    -3.05329   1.30855  -0.12653
H    -3.05234   0.57615  -1.77218
H     1.16525  -0.93912   1.60915
H     0.36924   2.07036   1.44205
H     1.94417   1.39062   0.93061
H     1.52744   1.44387   2.64585
H    -1.51550   0.54473   1.78054
H    -1.63742  -1.89720   2.79453
H    -0.76541  -2.45899   1.34613
H    -2.41602  -1.79896   1.21145
