49
Generated by autodE on: 2022-06-25. E = -1298.769301 Ha
C     1.50171   3.62896  -2.05080
O     1.01129   2.74915  -1.02390
C     0.48150   1.59870  -1.42434
O     0.36791   1.26217  -2.58138
C     0.02516   0.75374  -0.21798
C    -1.22985   1.45803   0.32730
O    -2.07232   1.92512  -0.41333
O    -1.26824   1.51551   1.64767
C    -2.46703   2.05205   2.23627
O     1.03947   0.71837   0.77127
C     1.50627  -0.62165   0.96647
C     2.76194  -0.91335   0.16384
C     3.32416  -2.19903   0.19625
C     4.48270  -2.48559  -0.52876
C     5.09876  -1.48857  -1.29361
C     4.55223  -0.20316  -1.31793
C     3.39272   0.08447  -0.58995
C     0.31618  -1.51022   0.55522
C    -0.22063  -0.72471  -0.64675
C    -1.64400  -1.08492  -1.06405
C    -2.54316  -1.12673   0.14473
C    -3.97666  -0.83331   0.08883
N    -4.52613  -0.70387  -1.14467
O    -4.68904  -0.69656   1.10902
C    -1.99630  -1.39885   1.36727
N    -0.68906  -1.64412   1.61268
C    -0.23940  -1.89757   2.97116
H     1.89671   4.50812  -1.52995
H     2.29782   3.13262  -2.62360
H     0.68355   3.91738  -2.72559
H    -2.65189   3.07030   1.86750
H    -2.28966   2.06189   3.31733
H    -3.32061   1.40326   1.99400
H     1.74290  -0.71567   2.03443
H     2.85338  -2.98198   0.79597
H     4.90697  -3.49200  -0.49593
H     6.00366  -1.71332  -1.86310
H     5.03029   0.58563  -1.90383
H     2.98487   1.09510  -0.59616
H     0.66515  -2.50762   0.24945
H     0.45660  -0.91362  -1.48775
H    -1.61219  -2.05639  -1.58709
H    -1.99041  -0.34555  -1.80084
H    -3.99849  -0.85189  -1.99513
H    -5.51432  -0.48875  -1.21562
H    -2.64695  -1.42918   2.24346
H     0.11653  -0.97947   3.46986
H    -1.06960  -2.30962   3.55956
H     0.57843  -2.63381   2.96972
