29
Generated by autodE on: 2022-07-27. E = -840.968012 Ha
C     0.00437   1.66087  -3.66303
O    -0.08596   1.10691  -2.34913
C    -1.22978   1.36893  -1.66556
O    -2.13139   2.03984  -2.15523
C    -1.23781   0.77788  -0.34471
O    -0.09647   0.07757  -0.06663
C     0.35194  -0.59394   0.92141
C     1.64644  -1.20058   0.80976
C     2.13060  -1.94226   1.90976
C     3.38199  -2.54916   1.84256
C     4.15757  -2.42256   0.68433
C     3.68275  -1.68664  -0.41264
C     2.43607  -1.07677  -0.35754
C    -2.33373   0.92040   0.58090
O    -3.37211   1.53736   0.37018
O    -2.10993   0.28664   1.75946
C    -3.14591   0.37825   2.74200
H     0.98048   1.35077  -4.05545
H    -0.79850   1.27632  -4.30996
H    -0.05518   2.75933  -3.63314
H    -0.25318  -0.69407   1.82395
H     1.51515  -2.03352   2.80750
H     3.75639  -3.12291   2.69269
H     5.13901  -2.89940   0.63297
H     4.29482  -1.59346  -1.31212
H     2.05541  -0.50222  -1.20333
H    -3.32621   1.42640   3.02253
H    -2.78817  -0.18747   3.61057
H    -4.08136  -0.06071   2.36506
