29
Generated by autodE on: 2022-06-25. E = -840.970153 Ha
C    -3.80928   2.80182  -0.58200
O    -3.13462   1.74425   0.10483
C    -1.89744   1.43961  -0.33877
O    -1.38120   2.04259  -1.28304
C    -1.25707   0.37238   0.37928
O     0.00434  -0.01654   0.01343
C     0.81914   0.38007  -0.88720
C     2.09016  -0.27320  -0.99839
C     2.98405   0.17671  -1.99463
C     4.22803  -0.43220  -2.13855
C     4.58896  -1.48932  -1.29516
C     3.70540  -1.94127  -0.30240
C     2.46208  -1.34157  -0.14897
C    -1.78208  -0.38346   1.49552
O    -2.88839  -0.24253   2.00315
O    -0.90025  -1.30782   1.95797
C    -1.34063  -2.09770   3.06434
H    -3.95266   2.55393  -1.64441
H    -4.78282   2.90679  -0.08800
H    -3.24659   3.74427  -0.50536
H     0.52369   1.20036  -1.54366
H     2.68871   1.00236  -2.64600
H     4.91965  -0.08509  -2.90873
H     5.56469  -1.96684  -1.40998
H     3.99585  -2.76690   0.35056
H     1.76553  -1.68333   0.61821
H    -1.56727  -1.46499   3.93568
H    -2.23698  -2.67981   2.80223
H    -0.51141  -2.77548   3.30088
