48
Generated by autodE on: 2022-06-21. E = -1276.936260 Ha
C    -3.56291  -2.02877  -2.07493
N    -2.67153  -1.01033  -1.55068
C    -2.05226  -1.14268  -0.37050
O    -2.23355  -2.10227   0.38623
C    -1.04067  -0.02760  -0.01752
C    -1.67208   1.35896  -0.29623
O    -1.33600   1.99775  -1.30221
N    -2.59676   1.77207   0.57351
C    -3.28710   3.03767   0.41033
N     0.14517  -0.22939  -0.85631
C     1.34805  -0.11683  -0.03358
C     1.68498   1.38557   0.05353
O     1.31290   2.16066   0.90881
O     2.32138   1.76952  -1.05515
C     2.49006   3.18347  -1.25190
C     2.56836  -0.83820  -0.59858
O     3.66782  -0.71760  -0.09476
O     2.30843  -1.61267  -1.64115
C     3.41068  -2.36547  -2.17557
C     0.89948  -0.78264   1.31686
C     0.88107  -2.31210   1.13922
C     1.77542  -0.43697   2.52172
C    -0.51939  -0.16860   1.43892
C    -1.49091  -0.79355   2.41152
O    -2.55778  -0.26589   2.68421
H    -4.12660  -1.60953  -2.91711
H    -4.26840  -2.35220  -1.29668
H    -3.00663  -2.91411  -2.42469
H    -2.42514  -0.22479  -2.14618
H    -2.78630   1.18776   1.39411
H    -3.81703   3.07693  -0.55410
H    -4.01679   3.15002   1.22126
H    -2.58277   3.88401   0.44625
H     0.13459   0.43013  -1.63584
H     3.02622   3.29316  -2.20112
H     3.07406   3.61891  -0.42929
H     1.50529   3.66940  -1.30810
H     3.80665  -3.05129  -1.41314
H     4.20813  -1.68777  -2.51131
H     3.00568  -2.92957  -3.02311
H     1.90996  -2.69828   1.08405
H     0.40672  -2.79077   2.00696
H     0.34193  -2.62492   0.23801
H     2.80159  -0.80034   2.36976
H     1.81020   0.64246   2.71287
H     1.37059  -0.93243   3.41788
H    -0.37951   0.85000   1.82496
H    -1.16295  -1.70006   2.96110
