34
Generated by autodE on: 2022-07-27. E = -1006.211116 Ha
C    -2.96764  -2.62513  -1.12038
N    -2.53414  -1.30498  -0.69817
C    -1.41738  -1.12995   0.03150
O    -0.71738  -2.06240   0.43920
C    -1.07896   0.27710   0.41173
N     0.16910   0.70387   0.40012
C     1.35040   0.24965  -0.06273
C     2.47914   1.06594   0.37738
O     2.34269   2.03943   1.11235
O     3.66065   0.67736  -0.11092
C     4.80047   1.45715   0.27298
C     1.47101  -0.86455  -1.01361
O     2.39485  -1.65473  -1.06345
O     0.44747  -0.87966  -1.88396
C     0.38265  -1.99204  -2.78617
C    -1.98694   1.23436   1.10823
O    -1.53071   2.32019   1.50428
N    -3.26532   0.87190   1.30003
C    -4.20152   1.74216   1.98522
H    -2.32497  -3.02372  -1.92230
H    -2.93302  -3.32179  -0.27172
H    -3.99850  -2.55935  -1.48947
H    -2.96603  -0.49008  -1.12558
H     0.25756   1.60898   0.90580
H     4.92393   1.45126   1.36572
H     5.66387   0.98226  -0.20723
H     4.69534   2.49462  -0.07649
H     0.32225  -2.93439  -2.22384
H     1.26587  -2.00928  -3.44047
H    -0.52561  -1.84489  -3.38119
H    -3.58328  -0.03464   0.97402
H    -3.89876   1.91075   3.03103
H    -5.19190   1.27227   1.97340
H    -4.26401   2.72211   1.48754
