44
Generated by autodE on: 2022-10-21. E = -1087.927644 Ha
C     3.98703  -0.33027  -1.86822
O     2.86347  -0.11820  -0.99862
C     2.01254   0.84309  -1.34165
O     2.15490   1.54313  -2.32358
C     0.81796   0.96723  -0.40511
N     1.10833   0.51457   0.94652
C     2.06689   1.32328   1.68842
C    -0.15676   0.25372   1.60535
C    -0.78566   1.52102   2.08381
N    -1.16250   2.56595   2.41585
C     0.04663  -0.63704   2.76168
N     0.21690  -1.35170   3.65788
C    -1.09091  -0.38336   0.47843
O    -2.39911   0.08880   0.61871
C    -3.15216  -0.43554   1.70795
C    -0.96858  -1.92136   0.32947
C    -2.00806  -2.36823  -0.72458
C    -1.42072  -1.82841  -2.06018
C    -0.10122  -1.16243  -1.62080
C     0.33874  -2.07983  -0.46461
C    -0.44124   0.15572  -0.87109
O    -1.37487   0.98421  -1.51137
C    -1.01831   1.48773  -2.79051
H     3.64134  -0.61649  -2.87179
H     4.59646   0.58186  -1.93466
H     4.56555  -1.14427  -1.41745
H     0.53192   2.03567  -0.42328
H     3.03186   1.30885   1.16510
H     2.21883   0.89403   2.68926
H     1.73940   2.37487   1.79709
H    -2.70973  -0.17389   2.68398
H    -4.14707   0.02486   1.64588
H    -3.25867  -1.52955   1.65019
H    -1.03230  -2.46451   1.27961
H    -3.01513  -1.98544  -0.52325
H    -2.06155  -3.46604  -0.72335
H    -1.20496  -2.64410  -2.76459
H    -2.09592  -1.12295  -2.56013
H     0.62200  -1.03001  -2.43513
H     1.23309  -1.73997   0.06488
H     0.49031  -3.11706  -0.79706
H    -0.71846   0.68493  -3.48405
H    -0.19882   2.22069  -2.72826
H    -1.91347   1.98391  -3.19061
