44
Generated by autodE on: 2022-10-21. E = -1087.866076 Ha. Imaginary frequency = -222.1 cm-1
C     2.87924   2.02822  -3.00908
O     1.99443   1.99467  -1.88028
C     2.12162   0.95538  -1.04573
O     2.97423   0.09351  -1.17327
C     1.04652   0.96834  -0.02960
N     1.28284   0.55330   1.24386
C     2.50906  -0.09608   1.71445
C     0.16116   0.52391   2.09208
C    -0.69644   1.64253   2.15575
N    -1.42788   2.55474   2.17855
C     0.09587  -0.43794   3.11977
N     0.01621  -1.26415   3.94495
C    -1.35496  -0.49986   0.15690
O    -2.44993   0.22004   0.38135
C    -3.30333  -0.16909   1.46387
C    -1.20267  -1.97029   0.45086
C    -2.02983  -2.66025  -0.68974
C    -1.19458  -2.35784  -1.96727
C     0.01900  -1.54742  -1.41662
C     0.22616  -2.23343  -0.05581
C    -0.52821  -0.19096  -0.96400
O    -1.01783   0.75402  -1.83410
C    -0.54436   0.75872  -3.17985
H     2.59897   2.91709  -3.58540
H     3.92390   2.10335  -2.67513
H     2.75514   1.12203  -3.61989
H     0.34604   1.79886  -0.12969
H     2.69895   0.23432   2.74378
H     3.35226   0.19414   1.08391
H     2.42622  -1.19386   1.71006
H    -2.72809  -0.28090   2.39406
H    -4.04069   0.63394   1.57848
H    -3.81391  -1.11519   1.23015
H    -1.45304  -2.29754   1.46598
H    -3.05574  -2.27169  -0.74601
H    -2.08604  -3.73907  -0.48440
H    -0.83646  -3.28244  -2.44246
H    -1.76340  -1.79338  -2.71782
H     0.88948  -1.50626  -2.08054
H     1.01065  -1.78290   0.55357
H     0.43047  -3.30814  -0.16098
H    -1.17823   0.11751  -3.81365
H     0.49360   0.41412  -3.26341
H    -0.60585   1.79369  -3.54240
