21
Generated by autodE on: 2022-06-01. E = -516.660760 Ha
C     2.87398   0.14746   2.18808
N     3.49390  -0.19785   0.91987
C     2.84748  -0.38509  -0.24877
O     3.42406  -0.68838  -1.30293
C     1.40557  -0.20747  -0.20710
C     0.19540  -0.07054  -0.22147
C    -1.22228   0.09093  -0.23277
C    -1.95120  -0.09904  -1.42572
C    -3.33589   0.06039  -1.42968
C    -4.00781   0.40886  -0.25261
C    -3.29125   0.59887   0.93446
C    -1.90644   0.44206   0.95026
H     2.32278   1.09792   2.12443
H     2.17865  -0.63505   2.52940
H     3.66529   0.25767   2.93959
H     4.50123  -0.33286   0.88549
H    -1.42112  -0.37052  -2.34043
H    -3.89500  -0.08803  -2.35610
H    -5.09308   0.53311  -0.26040
H    -3.81587   0.87073   1.85304
H    -1.34164   0.58897   1.87264
