13
Generated by autodE on: 2022-06-01. E = -585.237998 Ha
C    -3.36254  -0.58918  -0.29309
O    -1.93835  -0.79496  -0.30221
C    -1.18781   0.25120   0.02559
O    -1.59890   1.35536   0.32217
C     0.24153  -0.05642  -0.00480
O     0.69184  -1.28552  -0.29901
N     1.99182  -1.36728  -0.26934
O     2.43943  -0.18336   0.04370
C     1.35359   0.78149   0.24816
O     1.58251   1.91918   0.54491
H    -3.80269  -1.53906  -0.61542
H    -3.63540   0.21676  -0.98865
H    -3.70157  -0.33338   0.72087
