34
Generated by autodE on: 2022-06-01. E = -1101.884630 Ha. Imaginary frequency = -375.9 cm-1
C     1.95591   3.25623  -1.85967
N     0.94992   2.27796  -1.48795
C     0.88340   1.79027  -0.23785
O     1.56589   2.20756   0.70346
C    -0.05674   0.67715  -0.04042
C    -1.13768   0.14910   0.30697
C    -2.46669   0.09669   0.85264
C    -2.75625   0.86630   1.99763
C    -4.04426   0.86131   2.53260
C    -5.05103   0.09633   1.93476
C    -4.76729  -0.66809   0.79680
C    -3.48264  -0.67511   0.25680
N    -0.68511  -1.96197  -0.10836
O    -0.55791  -1.82074  -1.46712
C     0.65343  -1.19304  -1.78001
O     0.95861  -0.86894  -2.89504
C     1.27073  -1.08253  -0.46687
C     2.64612  -0.64672  -0.15098
O     3.30611  -0.01878  -0.95168
O     3.00448  -0.96867   1.07982
C     4.28428  -0.47435   1.52264
O     0.56655  -1.83866   0.37535
H     2.96891   2.82553  -1.80031
H     1.76657   3.58487  -2.88850
H     1.91170   4.12869  -1.19241
H     0.43229   1.79860  -2.21919
H    -1.96456   1.46035   2.45764
H    -4.26229   1.45726   3.42158
H    -6.05856   0.09362   2.35674
H    -5.55285  -1.26562   0.32915
H    -3.25931  -1.27242  -0.62828
H     4.28154   0.62436   1.49526
H     4.40272  -0.83517   2.54976
H     5.08566  -0.86452   0.88035
