20
Generated by autodE on: 2022-06-20. E = -457.715331 Ha
C     3.14137  -0.48285  -0.03509
N     1.82477   0.13159  -0.07931
C     1.69966   1.46366  -0.49299
C     0.51068   2.07147  -0.63102
C    -0.80344   1.38419  -0.35349
C    -0.57070  -0.06255   0.05050
C    -1.69708  -0.96166   0.34844
N    -2.93506  -0.41538   0.24991
O    -1.55618  -2.15876   0.67175
C     0.68611  -0.57917   0.15604
H     3.57524  -0.58075  -1.04465
H     3.06112  -1.48274   0.40920
H     3.82910   0.11831   0.57971
H     2.64396   1.97273  -0.69447
H     0.49525   3.11471  -0.95457
H    -1.36056   1.93127   0.43511
H    -1.45989   1.44435  -1.24545
H    -3.08685   0.55249  -0.00363
H    -3.74116  -0.99785   0.44787
H     0.82424  -1.62143   0.44810
