35
Generated by autodE on: 2022-05-30. E = -1325.813536 Ha
C     4.30705   0.99342  -1.25662
N     2.94233   1.07723  -0.76677
C     2.40637   0.09940  -0.03729
O     2.98619  -0.91557   0.34153
C     0.94459   0.29849   0.36848
O     0.89955   0.15194   1.80065
C    -0.22258   0.80076   2.19759
O    -0.59049   0.93229   3.32535
C    -0.79845   1.37884   0.87474
C    -1.56772   2.59658   1.04811
N    -2.20050   3.55372   1.20469
O     0.43409   1.59855   0.16670
C    -1.47196   0.22612   0.03127
C    -2.27834   0.81663  -1.11689
C    -2.26172  -0.80483   0.90669
C    -2.72056  -1.94186   0.00624
C    -1.62006  -2.65867  -0.25085
C    -0.48846  -1.94817   0.48724
O    -1.18807  -1.42694   1.62465
C    -0.16700  -0.61340  -0.28959
C     0.17121  -0.81903  -1.76911
F     1.22874  -1.64453  -1.89688
F    -0.82299  -1.35774  -2.48459
F     0.49809   0.33923  -2.37143
H     4.55619   1.92983  -1.76877
H     4.41990   0.15521  -1.96236
H     5.00892   0.83998  -0.42369
H     2.35607   1.85875  -1.04546
H    -3.16548   1.32576  -0.71244
H    -1.68770   1.54361  -1.68992
H    -2.62067   0.03120  -1.79992
H    -2.99176  -0.35237   1.58676
H    -3.72973  -2.07250  -0.38155
H    -1.49763  -3.51953  -0.90598
H     0.39596  -2.52264   0.77883
