16
Generated by autodE on: 2022-05-30. E = -641.691604 Ha
C    -3.82242   0.91739  -1.18900
N    -2.41653   0.71864  -0.89123
C    -1.98392  -0.16804   0.01213
O    -2.65936  -0.91958   0.70646
C    -0.48579  -0.20972   0.17115
O     0.08587  -0.96252   1.03349
C     1.59005  -0.74296   0.92054
O     2.32834  -1.35154   1.64149
C     1.63229   0.20636  -0.10842
C     2.71583   0.84620  -0.71391
N     3.64966   1.37632  -1.21175
O     0.33156   0.49887  -0.53191
H    -4.09561   1.97278  -1.04196
H    -4.03925   0.64018  -2.23192
H    -4.42184   0.29187  -0.51830
H    -1.73332   1.27348  -1.40194
