35
Generated by autodE on: 2022-05-30. E = -1325.744964 Ha. Imaginary frequency = -250.9 cm-1
C     4.21085   0.56923  -1.40327
N     2.98718   0.94792  -0.71994
C     2.45331   0.16725   0.22508
O     2.96454  -0.83930   0.70878
C     1.09097   0.58377   0.70813
O     0.73504   0.23647   1.93424
C    -0.43132   0.98731   2.28856
O    -1.02760   0.79277   3.31533
C    -0.57818   1.86200   1.17061
C    -1.45460   2.93981   0.99984
N    -2.22015   3.80838   0.86297
O     0.51740   1.72137   0.34635
C    -1.60158  -0.16309  -0.18229
C    -2.41465   0.75550  -1.01594
C    -2.24955  -1.13955   0.81861
C    -2.65444  -2.35516  -0.04499
C    -1.49883  -2.95172  -0.35646
C    -0.40600  -2.08602   0.31344
O    -1.09653  -1.65614   1.48845
C    -0.36351  -0.74028  -0.46857
C     0.21727  -0.69792  -1.84660
F     1.39920  -1.34571  -1.91658
F    -0.59146  -1.30301  -2.74658
F     0.41907   0.55548  -2.29750
H     4.59292   1.43564  -1.95579
H     4.02574  -0.25703  -2.10948
H     4.96579   0.24303  -0.67532
H     2.43625   1.71489  -1.09576
H    -3.17649   1.27965  -0.42280
H    -1.80202   1.48150  -1.56447
H    -2.94844   0.13454  -1.76080
H    -2.98779  -0.72311   1.51098
H    -3.67159  -2.59314  -0.35253
H    -1.31075  -3.82404  -0.98068
H     0.55961  -2.54685   0.54251
