45
Generated by autodE on: 2022-05-31. E = -1258.408136 Ha
C    -1.21315   2.03235  -3.52769
O    -0.85008   1.82307  -2.15092
C    -0.38972   0.62787  -1.83261
O    -0.23932  -0.26924  -2.63873
C    -0.02080   0.44815  -0.34229
C    -0.56188   1.57441   0.53809
O    -1.32806   1.38013   1.46093
O    -0.12529   2.77434   0.19006
C    -0.50759   3.87032   1.03333
C     1.55791   0.25864  -0.28161
C     2.33107   1.23755  -1.17665
C     2.13511   0.49984   1.13946
C     3.27960  -0.37157   1.56863
O     1.75400   1.44543   1.80456
N     1.76585  -1.11052  -0.73285
C     0.58735  -1.92338  -0.43473
C     0.91134  -3.03512   0.47477
N     1.18341  -3.95091   1.13291
C    -0.55748  -0.96573   0.08591
C    -0.67372  -1.07585   1.64541
C    -1.99328  -1.39279   2.27847
O     0.35173  -1.02103   2.29470
C    -1.92672  -1.26393  -0.54847
C    -2.31092  -2.69237  -0.79847
O    -2.66719  -0.33816  -0.82811
H    -1.56783   3.06708  -3.58644
H    -0.33899   1.88694  -4.17722
H    -2.01096   1.33333  -3.81480
H    -1.60178   3.96564   1.06882
H    -0.11539   3.71495   2.04863
H    -0.06062   4.76400   0.58385
H     2.08473   1.07143  -2.23573
H     2.08881   2.27172  -0.90653
H     3.41264   1.08338  -1.05436
H     4.06687  -0.37399   0.79962
H     2.94227  -1.41000   1.68819
H     3.68088   0.00488   2.51841
H     1.89702  -1.10950  -1.74119
H     0.24854  -2.40091  -1.36289
H    -2.82237  -0.83361   1.83048
H    -2.18646  -2.46945   2.13163
H    -1.93114  -1.19454   3.35603
H    -1.85930  -3.39101  -0.08114
H    -3.40465  -2.78522  -0.79721
H    -1.94350  -2.96118  -1.80415
