17
Generated by autodE on: 2022-05-31. E = -418.344221 Ha
C    -3.17563  -0.31565  -0.47408
C    -1.69145  -0.55827  -0.52599
O    -1.21581  -1.51406  -1.16068
C    -0.80787   0.35642   0.18841
C    -1.20343   1.54086   0.99330
N     0.48364   0.04426   0.06921
C     1.56311   0.64864   0.57925
C     2.84364   0.13931   0.32061
N     3.92198  -0.26916   0.11704
H    -3.69167  -1.08616  -1.06086
H    -3.42114   0.68022  -0.87685
H    -3.53708  -0.34174   0.56654
H    -0.74335   2.46164   0.59039
H    -2.29012   1.67812   1.00897
H    -0.85190   1.44222   2.03663
H     0.62227  -0.79739  -0.51244
H     1.44202   1.53798   1.19613
