28
Generated by autodE on: 2022-05-31. E = -840.023171 Ha
C     2.10692   3.29838  -0.02038
O     1.65841   1.97825  -0.36910
C     0.66032   1.47697   0.34753
O     0.10697   2.08068   1.24858
C     0.23011   0.11790  -0.10250
C     1.07678  -0.74274  -0.98975
O     0.61217  -1.52630  -1.79576
O     2.37641  -0.61133  -0.75273
C     3.26404  -1.43120  -1.53168
C    -0.96955  -0.34791   0.29758
C    -1.91157   0.41137   1.21577
C    -1.77742   0.11285   2.67557
O    -2.78792   1.09482   0.72201
C    -1.51418  -1.70774  -0.10500
C    -2.52695  -1.70892  -1.20476
O    -1.17052  -2.68565   0.52998
H     2.46237   3.31684   1.01953
H     2.92786   3.52659  -0.70906
H     1.28949   4.02303  -0.14310
H     3.14555  -1.20975  -2.60182
H     4.27607  -1.17598  -1.19838
H     3.05684  -2.49540  -1.35034
H    -2.04351  -0.94726   2.83081
H    -0.73598   0.23987   3.00199
H    -2.45357   0.75432   3.25656
H    -2.07785  -1.28283  -2.11423
H    -3.36816  -1.05506  -0.92152
H    -2.88292  -2.73107  -1.39032
