14
Generated by autodE on: 2022-06-18. E = -270.683216 Ha
C     0.38764  -2.30252   0.26043
C    -0.00180  -0.86919   0.08119
C    -1.47039  -0.59634  -0.07529
C     0.94781   0.10615   0.06819
C     0.70248   1.53128  -0.09305
O    -0.39012   2.07870  -0.22363
H     0.04385  -2.89567  -0.60528
H    -0.12967  -2.72405   1.14032
H     1.47146  -2.43646   0.38118
H    -1.83902   0.03704   0.74790
H    -1.67385  -0.03538  -1.00054
H    -2.04838  -1.53095  -0.08663
H     1.99778  -0.17712   0.18634
H     1.62900   2.15537  -0.09080
