27
Generated by autodE on: 2022-06-18. E = -702.971887 Ha
C    -2.12987   3.12406   0.65430
N    -1.15338   2.05808   0.52922
C    -1.47373   0.88964  -0.07033
O    -2.60499   0.71773  -0.56760
C    -0.45846  -0.17732  -0.10087
N     0.85545  -0.00318   0.07865
C     1.70718   1.00151   0.23161
C     3.10798   0.63260   0.35933
C     4.09556   1.75916   0.48844
O     3.45358  -0.55615   0.35906
C    -0.78126  -1.61488  -0.31325
O     0.13140  -2.46246  -0.22880
N    -2.05174  -1.93844  -0.58892
C    -2.45251  -3.30874  -0.82513
H    -2.54287   3.38416  -0.33086
H    -2.96948   2.83716   1.30933
H    -1.63504   4.00709   1.07670
H    -0.31985   2.11296   1.10419
H     1.33237  -0.93195   0.06851
H     1.38299   2.03833   0.21209
H     3.83519   2.39568   1.34973
H     4.05423   2.39960  -0.40817
H     5.11067   1.36035   0.61168
H    -2.70016  -1.15786  -0.70545
H    -1.96103  -3.72866  -1.71861
H    -3.53859  -3.33985  -0.97520
H    -2.19548  -3.95164   0.03133
