38
Generated by autodE on: 2022-05-31. E = -3566.629192 Ha
C    -1.89091  -0.66766   2.74684
C    -2.30387  -0.56838   1.30768
O    -3.39434  -0.92803   0.90310
C    -1.25825  -0.03821   0.35637
C    -0.13156  -0.66931   0.01137
Br    0.39723  -2.41280   0.47398
C     0.77502   0.19260  -0.86840
C     0.76951  -0.37348  -2.23914
N     0.72691  -0.79838  -3.31750
C     2.19578   0.26616  -0.29898
C     3.29319  -0.32271  -0.93202
C     4.55869  -0.26488  -0.33724
C     4.72785   0.37526   0.89197
C     3.62680   0.96192   1.52826
C     2.36584   0.90821   0.93543
N     0.08455   1.48815  -0.81888
C    -1.27728   1.32976  -0.31727
C    -1.65654   2.43682   0.69416
C    -1.01047   3.77279   0.51727
O    -2.47187   2.19277   1.56372
C    -2.30064   1.39667  -1.52111
C    -3.76440   1.29045  -1.25461
O    -1.83614   1.54491  -2.63266
H    -1.03752  -1.35765   2.84350
H    -2.73124  -1.02999   3.35341
H    -1.55183   0.31625   3.10346
H     3.17109  -0.82779  -1.89185
H     5.41280  -0.72302  -0.84092
H     5.71598   0.41931   1.35573
H     3.75271   1.46322   2.49063
H     1.50444   1.36439   1.42702
H     0.07375   1.93954  -1.73316
H    -1.51294   4.51734   1.14756
H     0.05107   3.69768   0.80078
H    -1.03661   4.07423  -0.54179
H    -4.31881   1.43241  -2.19064
H    -4.07998   2.03240  -0.50618
H    -3.97888   0.30078  -0.82323
