29
Generated by autodE on: 2022-07-27. E = -762.885110 Ha
C     0.01623   2.24388  -0.03364
C    -1.15363   1.46147   0.52175
O    -1.77659   1.90742   1.48706
C    -1.61050   0.25673  -0.17658
N    -0.81080  -0.51554  -0.96457
C     0.49285  -0.76554  -0.99590
C     0.94796  -1.52419  -2.11416
N     1.34596  -2.14149  -3.01837
C     1.46795  -0.41917   0.04724
C     2.78654  -0.08766  -0.30995
C     3.73106   0.19403   0.67741
C     3.37460   0.13196   2.02747
C     2.06750  -0.21860   2.38853
C     1.11528  -0.48895   1.40934
C    -3.01857  -0.12722  -0.32190
C    -4.09343   0.59857   0.43543
O    -3.30502  -1.05264  -1.09803
H    -0.30219   3.29611  -0.08876
H     0.34896   1.91133  -1.02438
H     0.86812   2.19334   0.66154
H    -1.40441  -1.07256  -1.60690
H     3.06541  -0.03875  -1.36462
H     4.74972   0.46246   0.38977
H     4.11434   0.35215   2.80020
H     1.78876  -0.28278   3.44242
H     0.10123  -0.76349   1.70367
H    -5.07068   0.22163   0.10646
H    -4.03230   1.68502   0.27518
H    -3.97362   0.43226   1.51634
