38
Generated by autodE on: 2022-05-31. E = -3566.532649 Ha. Imaginary frequency = -316.8 cm-1
C    -2.11264  -0.50980   2.87898
C    -2.46340  -0.61153   1.41885
O    -3.61754  -0.57053   1.00409
C    -1.33591  -0.80553   0.53075
C    -0.34628  -1.36267   0.01613
Br    0.69324  -2.86994  -0.10457
C     0.75885   0.24410  -1.17171
C     1.22644  -0.46959  -2.32735
N     1.59720  -1.08987  -3.23861
C     1.81871   0.62855  -0.18329
C     3.07092   1.00900  -0.69958
C     4.10184   1.40739   0.15276
C     3.90012   1.42727   1.53470
C     2.66218   1.04056   2.05658
C     1.62971   0.63868   1.20981
N    -0.38962   0.93009  -1.40663
C    -1.25342   1.46726  -0.52815
C    -0.85327   2.35815   0.60362
C     0.22762   3.37321   0.34369
O    -1.48753   2.35498   1.64728
C    -2.64177   1.52878  -1.08936
C    -3.70864   2.26581  -0.34296
O    -2.84817   0.98947  -2.17331
H    -1.68265  -1.46858   3.21350
H    -3.01259  -0.27943   3.46517
H    -1.34810   0.26622   3.03066
H     3.23886   1.00542  -1.77831
H     5.06505   1.70256  -0.26882
H     4.70608   1.73681   2.20368
H     2.49605   1.04247   3.13586
H     0.68289   0.32642   1.64333
H    -0.91443   0.60968  -2.23761
H     0.74828   3.61076   1.28089
H     0.94050   3.07503  -0.43228
H    -0.28747   4.28541  -0.00788
H    -4.65429   2.17987  -0.89221
H    -3.42702   3.32742  -0.24893
H    -3.82356   1.87024   0.67452
