42
Generated by autodE on: 2022-06-20. E = -1048.964419 Ha
C    -3.40094  -2.29837  -1.71743
N    -2.35692  -1.32657  -1.46217
C    -1.85388  -1.09887  -0.24710
O    -2.26087  -1.63860   0.78949
C    -0.72563  -0.04115  -0.19455
C    -1.41210   1.34519  -0.10061
O    -1.50901   2.04967  -1.11104
N    -1.90302   1.69719   1.09237
C    -2.56448   2.97450   1.28558
N     0.10550  -0.08066  -1.40068
C     1.48124  -0.42301  -1.04679
C     2.34930   0.81683  -0.91432
O     1.93626   1.91990  -0.61178
O     3.63372   0.55162  -1.15624
C     4.56612   1.62637  -0.96292
C     1.36195  -1.18622   0.31259
C     0.95335  -2.63665   0.01051
C     2.63479  -1.17850   1.16093
C     0.23917  -0.35210   0.97894
C    -0.38106  -0.92022   2.23794
O    -0.95202  -0.22004   3.06087
H    -3.93823  -2.02474  -2.63488
H    -2.99147  -3.31537  -1.83897
H    -4.10847  -2.30957  -0.87784
H    -1.83062  -0.93129  -2.23766
H    -1.68939   1.12141   1.91133
H    -3.39825   3.09343   0.57744
H    -1.86966   3.81722   1.13639
H    -2.95808   3.01802   2.30844
H     0.04061   0.82627  -1.86274
H     1.94911  -1.07586  -1.79761
H     4.53880   1.97183   0.08067
H     4.32904   2.46515  -1.63265
H     5.55419   1.21662  -1.20146
H     0.68477  -3.17941   0.92800
H     0.10681  -2.69824  -0.68660
H     1.80138  -3.16227  -0.45368
H     2.93209  -0.15922   1.45135
H     3.47178  -1.64490   0.62096
H     2.46642  -1.75164   2.08613
H     0.68048   0.60658   1.28907
H    -0.20302  -1.99354   2.45399
