14
Generated by autodE on: 2022-06-20. E = -270.687340 Ha
C    -0.94935   1.65251   0.42531
C    -0.95416   0.21917  -0.01515
C    -2.31186  -0.34371  -0.30752
C     0.15249  -0.55706  -0.15647
C     1.52103  -0.13815   0.09051
O     2.49182  -0.87726  -0.05406
H    -1.58371   1.76310   1.32107
H    -1.41200   2.27784  -0.35716
H     0.04546   2.05360   0.65023
H    -2.80991   0.25503  -1.08972
H    -2.95268  -0.27139   0.58836
H    -2.26905  -1.39231  -0.63252
H     0.04057  -1.59563  -0.48569
H     1.67665   0.91160   0.42653
