28
Generated by autodE on: 2022-07-27. E = -778.232435 Ha
C    -2.25304  -3.13007  -0.94480
N    -1.37303  -2.00243  -0.70013
C    -1.73804  -1.01065   0.14511
O    -2.81946  -1.07083   0.76521
C    -0.83712   0.14120   0.29807
N     0.45564   0.17476  -0.05486
C     1.36598  -0.66775  -0.51348
C     2.69419  -0.11713  -0.71985
O     2.99686   1.05439  -0.52298
O     3.55718  -1.04545  -1.15998
C     4.89780  -0.60630  -1.41078
C    -1.26355   1.45558   0.84728
O    -0.45055   2.40431   0.84938
N    -2.51146   1.56527   1.32117
C    -3.00268   2.80131   1.89142
H    -3.18128  -2.82539  -1.45682
H    -1.72474  -3.85942  -1.57105
H    -2.53189  -3.61098   0.00359
H    -0.62269  -1.84311  -1.36335
H     0.81761   1.13981   0.11109
H     1.15963  -1.71978  -0.68366
H     5.44672  -1.49049  -1.75522
H     5.35521  -0.21109  -0.49176
H     4.91107   0.17329  -2.18694
H    -3.06488   0.70654   1.33167
H    -4.05999   2.67491   2.15462
H    -2.91414   3.63312   1.17510
H    -2.44432   3.08094   2.80044
