49
Generated by autodE on: 2022-06-07. E = -3740.065754 Ha
C    -3.07122   3.33381  -1.96758
N    -2.01522   2.57569  -1.32641
C    -2.21848   1.91339  -0.17981
O    -3.29145   1.90935   0.42920
C    -1.01637   1.15613   0.37903
O     0.12623   1.38211  -0.42886
C     1.10177   0.37071  -0.20314
C     1.83801   0.82665   1.09075
O     1.29448   0.68732   2.18870
N     3.00310   1.46639   0.92841
C     3.70745   2.05178   2.05338
C     2.01663   0.26115  -1.40519
C     3.08418  -0.65153  -1.37290
C     3.93521  -0.78130  -2.47011
C     3.73359   0.00286  -3.61172
C     2.67798   0.91622  -3.64507
C     1.82149   1.04641  -2.54656
C     0.24409  -0.94289   0.05604
C     0.89698  -1.80669   1.03050
N     1.46092  -2.55160   1.71909
C    -0.08131  -1.74997  -1.25262
C    -0.84982  -3.03505  -0.88189
C    -2.25558  -2.50700  -0.48098
C    -2.11763  -0.98085  -0.64251
C    -1.19958  -0.90246  -1.88015
C    -1.19730  -0.38769   0.44892
Br   -1.80855  -0.86079   2.26331
H    -3.50213   4.06994  -1.27196
H    -2.65418   3.86339  -2.83255
H    -3.88557   2.67618  -2.31268
H    -1.10427   2.49513  -1.76688
H    -0.84166   1.53618   1.39544
H     3.39780   1.54852  -0.00240
H     3.88138   1.30018   2.83834
H     4.67392   2.43556   1.70581
H     3.13271   2.88025   2.49781
H     3.24929  -1.26580  -0.48517
H     4.75939  -1.49715  -2.43349
H     4.40099  -0.09759  -4.47071
H     2.51523   1.53447  -4.53082
H     0.99906   1.76020  -2.57989
H     0.81059  -1.92746  -1.85997
H    -0.90294  -3.68418  -1.76715
H    -0.36048  -3.61101  -0.08514
H    -2.55318  -2.79709   0.53389
H    -3.03015  -2.86899  -1.17165
H    -3.07493  -0.45085  -0.69707
H    -1.64828  -1.39975  -2.75184
H    -0.89879   0.10865  -2.16887
