31
Generated by autodE on: 2022-07-27. E = -801.227077 Ha
C    -5.23180   1.62272  -0.01810
N    -4.03393   1.15638   0.64590
C    -2.89837   0.88447  -0.04269
O    -2.81358   1.04054  -1.27578
C    -1.79275   0.41022   0.78143
O    -0.71270   0.11869   0.11760
C     0.51799  -0.25862   0.38629
C     0.89715  -0.40063   1.80329
O     0.02544  -0.50005   2.68653
N     2.21350  -0.37652   2.11673
C     2.65191  -0.45692   3.49561
C     1.34057  -0.44162  -0.80764
C     2.51530  -1.22684  -0.81003
C     3.26490  -1.38587  -1.97648
C     2.86119  -0.78221  -3.17032
C     1.68490  -0.02186  -3.18859
C     0.93351   0.14741  -2.02950
H    -5.62705   0.87111  -0.72224
H    -5.03616   2.54418  -0.58943
H    -5.99916   1.83286   0.73680
H    -4.05947   0.97371   1.64389
H    -1.81241   0.30530   1.86315
H     2.89614  -0.15497   1.40117
H     2.33921   0.42656   4.07767
H     3.74666  -0.52274   3.51489
H     2.23335  -1.34823   3.98660
H     2.83398  -1.74375   0.09444
H     4.16774  -2.00057  -1.95057
H     3.45139  -0.90848  -4.08062
H     1.35168   0.44821  -4.11701
H     0.01372   0.73277  -2.05662
