31
Generated by autodE on: 2022-06-07. E = -801.228055 Ha
C     1.26632   2.54109  -3.74685
N     1.05271   1.59311  -2.67465
C     1.64587   0.37427  -2.68233
O     2.38301  -0.00402  -3.61323
C     1.39285  -0.51024  -1.55217
O     0.56867  -0.08360  -0.63760
C     0.04287  -0.53338   0.48271
C     0.42257  -1.88025   0.93534
O     1.38592  -2.47825   0.42047
N    -0.32818  -2.45740   1.90259
C    -0.03627  -3.79533   2.37510
C    -0.91021   0.39557   1.08926
C    -1.62590   1.29619   0.26632
C    -2.51414   2.21557   0.81900
C    -2.71987   2.25924   2.20327
C    -2.01655   1.37755   3.02914
C    -1.11752   0.45960   2.48457
H     0.98387   2.11149  -4.72109
H     0.64989   3.42976  -3.56372
H     2.32222   2.85388  -3.81356
H     0.51223   1.87312  -1.86338
H     1.85373  -1.49025  -1.47172
H    -1.16401  -1.99224   2.23686
H    -0.18015  -4.54913   1.58276
H    -0.70771  -4.02911   3.21027
H     1.00487  -3.87072   2.72451
H    -1.48697   1.25726  -0.81533
H    -3.05959   2.89785   0.16267
H    -3.42156   2.97704   2.63380
H    -2.15551   1.41204   4.11219
H    -0.54995  -0.18773   3.15354
