18
Generated by autodE on: 2022-06-07. E = -2938.734761 Ha
N     2.96225  -1.48175   0.04353
C     1.82543  -1.28090  -0.11870
C     0.44450  -1.06900  -0.33105
C    -0.23543   0.10106  -0.26087
Br    0.46782   1.79427   0.13271
C    -1.71389  -0.19591  -0.36044
C    -2.08367  -0.89382   0.99205
C    -1.33129  -2.25178   0.90607
C    -0.61493  -2.16713  -0.47738
C    -1.67037  -1.41205  -1.31164
H    -2.34889   0.65379  -0.63399
H    -3.17283  -1.03619   1.03646
H    -1.78626  -0.28579   1.85779
H    -0.61447  -2.40056   1.72528
H    -2.03196  -3.09926   0.90872
H    -0.23734  -3.11882  -0.86799
H    -2.63272  -1.94163  -1.36642
H    -1.32169  -1.15578  -2.32209
