49
Generated by autodE on: 2022-06-07. E = -3739.977196 Ha. Imaginary frequency = -162.0 cm-1
C    -4.39541   2.47112  -0.86279
N    -3.14001   2.25805  -0.17297
C    -2.00082   1.96825  -0.84349
O    -1.92910   1.97157  -2.08367
C    -0.86818   1.61770   0.01816
O     0.25425   1.42700  -0.62392
C     1.43871   0.99989  -0.23258
C     1.84017   1.24560   1.17303
O     0.99605   1.49624   2.04864
N     3.15969   1.22486   1.45424
C     3.63149   1.39382   2.81380
C     2.30693   0.60670  -1.34395
C     3.35439  -0.32309  -1.16798
C     4.12663  -0.73404  -2.25506
C     3.86785  -0.23928  -3.53662
C     2.81801   0.66742  -3.72547
C     2.04327   1.08516  -2.64602
C     0.08494  -1.32569   0.31600
C     0.98308  -1.58873   1.37527
N     1.75185  -1.83677   2.21660
C     0.17231  -2.03648  -1.03940
C    -0.61954  -3.36734  -0.83908
C    -2.08838  -2.87828  -0.68094
C    -1.96244  -1.32534  -0.81780
C    -0.83985  -1.22444  -1.86846
C    -1.21594  -0.87771   0.42751
Br   -2.13469  -0.65883   2.07868
H    -5.13734   2.84700  -0.14765
H    -4.27155   3.20997  -1.66794
H    -4.77872   1.53933  -1.31358
H    -3.14856   2.16040   0.83699
H    -0.84525   1.73842   1.09665
H     3.83606   1.10067   0.71037
H     3.41741   2.40503   3.19697
H     3.14861   0.66636   3.48400
H     4.71591   1.23095   2.83330
H     3.53766  -0.76412  -0.18795
H     4.92727  -1.46047  -2.09856
H     4.47433  -0.56371  -4.38506
H     2.60238   1.05475  -4.72399
H     1.22214   1.78644  -2.79969
H     1.18647  -2.14824  -1.43805
H    -0.50111  -4.00422  -1.72797
H    -0.25604  -3.93033   0.03228
H    -2.54143  -3.16818   0.27738
H    -2.73089  -3.26027  -1.48721
H    -2.90122  -0.79743  -1.01947
H    -1.10661  -1.73322  -2.80597
H    -0.52879  -0.20026  -2.08923
