43
Generated by autodE on: 2022-06-21. E = -1053.677965 Ha
C    -2.29012  -1.94297  -2.92997
O    -2.18694  -1.03409  -1.82023
C    -1.04300  -1.04258  -1.15117
O    -0.11126  -1.77513  -1.40736
C    -1.00053   0.02205  -0.04773
C    -0.58095  -0.62469   1.29030
O    -0.21443  -1.76862   1.43705
O    -0.70172   0.25102   2.28159
C    -0.27970  -0.18464   3.58436
O    -2.29588   0.57154   0.15710
C    -2.30215   1.98702   0.00936
C    -2.95033   2.35068  -1.26872
N    -3.48364   2.63216  -2.25970
C    -0.84282   2.42436   0.11851
C    -0.03730   1.23118  -0.44394
C     0.11248   1.35598  -1.97450
C     1.33521   1.15807   0.19533
C     2.13182   0.07260   0.18972
C     3.44263   0.01886   0.81295
C     4.21687  -1.08544   0.94289
C     5.56870  -1.00879   1.59444
C     3.81737  -2.45573   0.46922
H    -3.28682  -1.78271  -3.35563
H    -2.18215  -2.98030  -2.58358
H    -1.51352  -1.72003  -3.67522
H    -0.87486  -1.04915   3.90994
H    -0.44424   0.66709   4.25348
H     0.78565  -0.45544   3.56200
H    -2.92078   2.41653   0.81183
H    -0.63206   3.35319  -0.42680
H    -0.61012   2.57536   1.17885
H     0.66019   2.28113  -2.20389
H    -0.85932   1.39606  -2.48733
H     0.68506   0.51294  -2.38206
H     1.68325   2.07902   0.67626
H     1.77092  -0.83141  -0.30521
H     3.82307   0.96435   1.21762
H     5.61222  -1.66142   2.48472
H     5.82557   0.01606   1.90025
H     6.35326  -1.37565   0.90848
H     4.47327  -2.78570  -0.35619
H     2.77560  -2.51813   0.12878
H     3.95389  -3.19059   1.28126
