20
Generated by autodE on: 2022-06-21. E = -702.060771 Ha
C    -3.02055  -1.75261  -1.09416
O    -2.10053  -0.69039  -0.80285
C    -0.92425  -1.04985  -0.29036
O    -0.61793  -2.21668  -0.06821
C    -0.01692   0.05792  -0.00975
O     1.17797  -0.21254   0.49891
C     1.78924  -1.29399   0.83504
C     3.09298  -1.13206   1.35499
N     4.17200  -1.05011   1.78966
C    -0.17325   1.51090  -0.19434
O     0.70288   2.30970   0.09190
O    -1.35652   1.86324  -0.70076
C    -1.56830   3.26691  -0.90521
H    -3.91474  -1.26769  -1.50197
H    -2.59065  -2.44320  -1.83400
H    -3.27176  -2.30732  -0.17855
H     1.31751  -2.26942   0.72070
H    -2.57923   3.35946  -1.31841
H    -1.49541   3.81142   0.04742
H    -0.82951   3.67019  -1.61295
