20
Generated by autodE on: 2022-07-27. E = -702.061390 Ha
C    -0.68418  -2.72503  -2.63148
O    -0.15611  -2.08302  -1.46125
C    -0.51522  -0.81360  -1.27048
O    -1.25186  -0.19965  -2.03480
C     0.04021  -0.20515  -0.06740
O    -0.26632   1.05311   0.21705
C    -0.99601   1.94787  -0.35340
C    -1.05848   3.20130   0.29488
N    -1.13990   4.25267   0.79291
C     0.93234  -0.83457   0.91509
O     1.33843  -1.98117   0.84847
O     1.25611   0.00552   1.91033
C     2.12635  -0.51711   2.92211
H    -0.35287  -2.20261  -3.54059
H    -1.78319  -2.74192  -2.59911
H    -0.28793  -3.74658  -2.61452
H    -1.52658   1.73631  -1.28149
H     1.66506  -1.38187   3.42119
H     3.08948  -0.82037   2.48606
H     2.27597   0.29787   3.63974
