49
Generated by autodE on: 2022-06-21. E = -962.985718 Ha
C    -1.22589   3.52837  -2.00028
N    -0.29397   2.66000  -1.31229
C     0.05426   2.85163  -0.03411
O    -0.36172   3.80429   0.64261
C     1.01901   1.82537   0.56636
C     2.29121   2.57476   0.98610
N     1.38610   0.79121  -0.41203
C     1.44213  -0.35342   0.17104
C     1.81443  -1.59116  -0.54162
C     2.15285  -1.55643  -1.90837
C     2.49068  -2.72596  -2.58511
C     2.49926  -3.95319  -1.90912
C     2.16939  -3.99995  -0.55236
C     1.82940  -2.82763   0.12790
C     1.11080  -0.30610   1.64470
C     0.33370   1.01760   1.75771
C     0.46403   1.68025   3.13023
C    -1.13563   0.83171   1.43526
C    -1.71594  -0.24942   0.87843
C    -3.13065  -0.32474   0.55131
C    -3.77367  -1.36789  -0.02638
C    -3.11090  -2.65574  -0.43005
C    -5.24736  -1.30065  -0.31570
H    -0.90058   4.57885  -1.94586
H    -1.28281   3.22991  -3.05424
H    -2.23501   3.46489  -1.56068
H     0.10840   1.85074  -1.77643
H     2.78804   2.97968   0.09141
H     2.04966   3.41058   1.65533
H     2.99349   1.89915   1.49516
H     2.14735  -0.59900  -2.43037
H     2.74990  -2.68431  -3.64562
H     2.76392  -4.86995  -2.44131
H     2.17585  -4.95289  -0.01845
H     1.57466  -2.87911   1.18710
H     2.05073  -0.26237   2.22041
H     0.54868  -1.17396   2.01075
H    -0.01932   2.66824   3.13253
H    -0.02765   1.05795   3.89450
H     1.51558   1.80595   3.42419
H    -1.76456   1.70217   1.65354
H    -1.10582  -1.12488   0.64234
H    -3.72268   0.56487   0.79814
H    -3.59545  -3.50984   0.07523
H    -2.03700  -2.69114  -0.20543
H    -3.23972  -2.82871  -1.51322
H    -5.78594  -2.11554   0.20069
H    -5.68811  -0.34170  -0.00565
H    -5.44213  -1.44184  -1.39409
