26
Generated by autodE on: 2022-06-21. E = -611.367490 Ha
C     4.89789   0.72801  -0.80599
N     3.96611  -0.21152  -0.22144
C     2.62087   0.00132  -0.26836
O     2.14877   0.99176  -0.87098
C     1.79018  -0.98251   0.40971
C     2.30110  -2.19251   1.14064
N     0.49144  -0.74332   0.34448
C    -0.63604  -0.43798   0.21049
C    -1.96788   0.01123   0.13007
C    -3.02661  -0.73413   0.70059
C    -4.33137  -0.25768   0.60127
C    -4.60616   0.94633  -0.05871
C    -3.55738   1.68165  -0.62537
C    -2.24399   1.22906  -0.53870
H     4.85392   1.71650  -0.31657
H     5.91615   0.33315  -0.69820
H     4.69502   0.88092  -1.87810
H     4.33259  -0.98692   0.31661
H     1.46451  -2.77226   1.55480
H     2.96446  -1.91757   1.98016
H     2.87586  -2.86207   0.47625
H    -2.81182  -1.67312   1.21309
H    -5.14505  -0.83580   1.04528
H    -5.63318   1.30996  -0.13160
H    -3.76458   2.62193  -1.14157
H    -1.42227   1.79765  -0.97724
