44
Generated by autodE on: 2022-06-19. E = -921.597679 Ha
C    -2.65652   2.70985   0.48135
C    -1.39262   2.35660   0.20978
C    -0.54634   3.04704  -0.82330
C    -0.79156   1.16777   0.91428
O     0.56083   1.47645   1.32330
N     1.28808   0.24518   1.41167
C     0.96944  -0.39733   2.68789
C     0.85698  -0.42758   0.17351
C     1.25756  -1.90964   0.08521
C     0.66714  -2.70884  -1.04089
O     2.05989  -2.39161   0.86368
C     1.63319   0.23423  -1.01862
O     1.17676   0.22947  -2.16504
N     2.82683   0.73475  -0.69254
C     3.67029   1.41474  -1.65372
C    -0.66383  -0.10325   0.01619
C    -1.63865  -1.16955   0.42684
C    -2.84176  -1.39145  -0.13350
C    -3.39124  -0.62322  -1.30519
C    -3.75739  -2.45737   0.40579
H    -3.14822   3.52511  -0.05752
H    -3.24028   2.18663   1.24452
H     0.38184   3.43215  -0.37208
H    -1.08881   3.88432  -1.28467
H    -0.23854   2.34958  -1.61921
H    -1.39525   0.92549   1.80238
H     1.64639  -1.24513   2.83238
H    -0.07071  -0.75169   2.77310
H     1.15563   0.34302   3.47739
H     1.32492  -3.55887  -1.26600
H     0.49534  -2.09343  -1.93315
H    -0.31195  -3.09451  -0.71490
H     3.03134   0.76797   0.30395
H     3.72638   0.83599  -2.58652
H     4.67941   1.51880  -1.23608
H     3.28298   2.41866  -1.89648
H    -0.83546   0.16599  -1.02995
H    -1.36006  -1.77708   1.29475
H    -4.29420  -0.06521  -1.00227
H    -2.68137   0.09759  -1.73089
H    -3.70723  -1.31588  -2.10429
H    -3.31971  -2.98089   1.26858
H    -3.98884  -3.20339  -0.37498
H    -4.72486  -2.02368   0.71470
