23
Generated by autodE on: 2022-06-19. E = -351.521383 Ha
C     3.20944   1.18112  -1.61404
C     2.42044   0.46369  -0.78424
C     3.00205  -0.55085   0.16689
C     0.97278   0.66424  -0.79846
C     0.07598   0.00949  -0.01874
C    -1.35218   0.24635  -0.07375
C    -2.31120  -0.36318   0.66819
C    -2.04193  -1.41759   1.70406
C    -3.76048  -0.00703   0.49332
H     4.29516   1.05074  -1.62420
H     2.78442   1.91691  -2.30373
H     4.09618  -0.60095   0.07531
H     2.59183  -1.55629  -0.02495
H     2.75270  -0.30419   1.21233
H     0.59993   1.41270  -1.50808
H     0.44070  -0.73808   0.69089
H    -1.67876   1.00214  -0.79835
H    -2.58366  -2.34665   1.45297
H    -0.97838  -1.66276   1.81982
H    -2.42891  -1.09472   2.68673
H    -4.35123  -0.89756   0.21256
H    -4.19147   0.35708   1.44334
H    -3.90930   0.76578  -0.27504
