21
Generated by autodE on: 2022-06-19. E = -570.058541 Ha
C     2.56973  -0.27827   0.29023
N     1.94270   0.93040  -0.21655
C     0.63209   1.08818  -0.45391
O     0.14332   2.09758  -0.97017
C    -0.28500  -0.03034  -0.00822
C    -1.10677   0.11762   1.21030
C    -0.89023   1.38731   1.99014
O    -1.90397  -0.73793   1.58180
N    -0.35213  -1.06848  -0.82887
C    -1.26505  -2.21461  -0.61976
O     0.38390  -1.13825  -1.85300
H     2.64683  -1.05501  -0.48708
H     2.00127  -0.68311   1.13902
H     3.57858  -0.03206   0.64387
H     2.54178   1.67407  -0.56925
H     0.16983   1.48319   2.27438
H    -1.51874   1.37463   2.88910
H    -1.13761   2.25992   1.36675
H    -1.11254  -2.86738  -1.48408
H    -2.29948  -1.86009  -0.55992
H    -1.00544  -2.72268   0.31607
