21
Generated by autodE on: 2022-07-27. E = -570.059805 Ha
C     1.39773   2.30618  -2.05691
N     1.18482   1.24101  -1.09449
C    -0.04278   0.79322  -0.79771
O    -1.07124   1.18248  -1.35780
C    -0.11507  -0.28291   0.26278
C    -0.27991  -1.70052  -0.11329
C    -0.31700  -1.97944  -1.59290
O    -0.37853  -2.60241   0.71349
N    -0.13102   0.16373   1.51217
C    -0.27709  -0.72266   2.68932
O    -0.02660   1.39468   1.76739
H     2.47083   2.38655  -2.26833
H     1.03596   3.27488  -1.67421
H     0.86361   2.08684  -2.99266
H     1.96607   0.91519  -0.53330
H     0.61448  -1.63333  -2.06796
H    -1.14410  -1.42573  -2.06266
H    -0.44115  -3.05686  -1.75778
H     0.54364  -1.44775   2.70947
H    -1.22924  -1.26141   2.62819
H    -0.24888  -0.05821   3.55766
