47
Generated by autodE on: 2022-05-30. E = -999.645858 Ha
C     0.67790   0.22667  -1.90509
C     0.62728  -0.51753  -0.56609
C     1.08372  -1.97684  -0.79556
C     1.47001   0.03496   0.59260
C     2.81065   0.63761   0.52417
C     3.28405   1.39826   1.61566
C     4.54700   1.98449   1.58826
C     5.37274   1.83208   0.46703
C     4.91759   1.08457  -0.62140
C     3.65083   0.49432  -0.59652
N     0.87823  -0.12129   1.73187
N    -0.34955  -0.70844   1.54617
C    -0.79632  -0.49431   0.14310
C    -1.68751  -1.62834  -0.34492
C    -2.30380  -1.54656  -1.60510
C    -3.08092  -2.59833  -2.09303
C    -3.26859  -3.75181  -1.32340
C    -2.67238  -3.83740  -0.06353
C    -1.88748  -2.78452   0.41930
C    -1.53480   0.85944   0.11236
C    -0.85768   2.09409   0.11162
C    -1.55288   3.30060   0.22779
C    -2.94453   3.30990   0.35304
C    -3.63122   2.09400   0.37345
C    -2.93345   0.88867   0.25857
H     0.68550   1.31761  -1.80290
H    -0.19114  -0.05038  -2.51805
H     1.57058  -0.06337  -2.47505
H     0.97038  -2.58618   0.11133
H     0.50054  -2.44567  -1.60116
H     2.14298  -1.99148  -1.08947
H     2.63826   1.52724   2.48512
H     4.88903   2.57154   2.44420
H     6.36170   2.29571   0.44339
H     5.55241   0.95472  -1.50115
H     3.32923  -0.09283  -1.45465
H    -1.01677  -0.40489   2.25388
H    -2.18915  -0.64489  -2.20829
H    -3.54800  -2.51334  -3.07722
H    -3.88086  -4.57372  -1.70210
H    -2.81612  -4.72891   0.55197
H    -1.41866  -2.85964   1.40017
H     0.22580   2.13598   0.02993
H    -0.99608   4.24076   0.21764
H    -3.48671   4.25467   0.43749
H    -4.71852   2.07773   0.48142
H    -3.49338  -0.04600   0.29054
