15
Generated by autodE on: 2022-05-30. E = -379.942330 Ha
N     3.79614   0.55926   0.21308
N     2.57154   0.28601   0.09788
C     1.40565   0.15481   0.04785
C    -0.00310  -0.00958  -0.00706
C    -0.85630   1.00001   0.49296
C    -2.23836   0.83085   0.43537
C    -2.79124  -0.33176  -0.11374
C    -1.94825  -1.33298  -0.60955
C    -0.56374  -1.18229  -0.56138
H     4.33972  -0.22786  -0.16363
H    -0.42496   1.90621   0.92154
H    -2.89050   1.61637   0.82415
H    -3.87534  -0.45723  -0.15514
H    -2.37318  -2.24288  -1.03961
H     0.09380  -1.96260  -0.94839
