20
Generated by autodE on: 2022-06-20. E = -457.715347 Ha
C    -3.14502   0.24533   0.37813
N    -1.80599  -0.27027   0.14414
C    -1.64565  -1.55507  -0.39028
C    -0.44673  -2.05438  -0.72958
C     0.84148  -1.28478  -0.57231
C     0.56664   0.10311  -0.01682
C     1.65871   1.06185   0.21629
N     2.90515   0.63356  -0.10684
O     1.48399   2.20567   0.68376
C    -0.69754   0.50875   0.29093
H    -3.68439   0.41756  -0.56897
H    -3.07898   1.19660   0.92097
H    -3.72966  -0.46310   0.98477
H    -2.57083  -2.12242  -0.50638
H    -0.40125  -3.06871  -1.13262
H     1.36977  -1.22426  -1.54582
H     1.53974  -1.84256   0.08525
H     3.68566   1.26741   0.02494
H     3.08356  -0.27913  -0.50588
H    -0.86727   1.51148   0.68639
