40
Generated by autodE on: 2022-10-21. E = -993.511775 Ha
C    -3.37226   2.45818   1.39374
N    -2.17076   1.76585   0.97662
C    -2.20482   0.71699   0.14447
O    -3.25123   0.24166  -0.30197
C    -0.80250   0.11689  -0.15278
C    -0.76616  -0.73073  -1.46116
C    -1.77548  -1.81674  -1.69285
O     0.13224  -0.52686  -2.25895
C    -0.38467  -0.79815   1.00794
O    -1.34738  -1.64778   1.41290
C    -1.06502  -2.64394   2.39019
C     0.87925  -0.54369   1.40294
C     1.76807  -1.11845   2.46108
C     1.42336   0.57423   0.54002
C     2.45843   0.04825  -0.46849
O     2.67441  -1.12125  -0.71478
O     3.09976   1.05304  -1.07116
C     4.01380   0.70106  -2.12051
N     0.23006   1.13139  -0.09311
C     0.32538   2.15934  -1.10974
H    -3.10461   3.22512   2.13078
H    -3.87465   2.94574   0.54197
H    -4.08795   1.75853   1.85229
H    -1.24783   2.11495   1.22177
H    -1.37463  -2.52559  -2.43063
H    -2.04773  -2.32474  -0.75955
H    -2.69437  -1.35814  -2.08797
H    -1.97618  -3.24879   2.48078
H    -0.23009  -3.28555   2.06895
H    -0.83429  -2.18687   3.36474
H     1.32051  -1.94626   3.01867
H     2.05336  -0.33400   3.18328
H     2.70479  -1.48270   2.00673
H     1.93545   1.35182   1.13598
H     4.82657   0.07301  -1.72829
H     4.41542   1.64606  -2.50383
H     3.48534   0.15959  -2.91841
H     0.92984   2.99430  -0.72190
H    -0.68271   2.54792  -1.32034
H     0.76632   1.82740  -2.06345
