11
Generated by autodE on: 2022-10-21. E = -231.273301 Ha
C     2.57550   0.47802  -0.05078
C     1.16386   0.10525  -0.12115
C    -0.00769  -0.20577  -0.18298
O    -1.25693  -0.57103  -0.28062
C    -2.19136   0.15423   0.54831
H     3.18357  -0.31025   0.42344
H     2.99463   0.66561  -1.05330
H     2.71115   1.39935   0.53944
H    -3.18008  -0.27299   0.34218
H    -2.17731   1.22338   0.28731
H    -1.93475   0.02307   1.61060
