29
Generated by autodE on: 2022-10-21. E = -762.141870 Ha
C    -1.98307  -2.77469   1.17405
N    -1.88829  -1.46434   0.57201
C    -0.73561  -1.00887   0.04739
O     0.31240  -1.69126   0.09654
C    -0.79263   0.31384  -0.61869
C    -1.96589   1.13539  -0.67542
C    -1.88212   2.55359  -1.20785
O    -3.07938   0.75324  -0.23914
N     0.38464   0.68377  -1.28499
C     0.33360   1.15386  -2.68971
C     1.57161   0.45490  -0.78650
C     1.85074   0.28025   0.65745
O     1.17585   0.71044   1.57138
O     3.02846  -0.32722   0.81480
C     3.46336  -0.53987   2.16622
H    -1.16943  -2.93245   1.89856
H    -2.94387  -2.85803   1.69829
H    -1.92418  -3.58507   0.42650
H    -2.70856  -0.87009   0.41711
H    -2.11224   2.57067  -2.28497
H    -0.90251   3.02474  -1.05515
H    -2.65270   3.14587  -0.69545
H    -0.63678   0.89595  -3.12196
H     0.49765   2.23761  -2.72602
H     1.13054   0.65157  -3.25194
H     2.42659   0.48209  -1.46390
H     3.58466   0.42089   2.68693
H     4.42590  -1.05872   2.09537
H     2.73318  -1.16056   2.70551
