29
Generated by autodE on: 2022-10-26. E = -762.137282 Ha
C    -4.27308   0.64139   0.40806
N    -2.95985   0.06515   0.61539
C    -1.83421   0.72661   0.27039
O    -1.88465   1.90066  -0.13831
C    -0.53289   0.02336   0.39714
C    -0.26714  -1.35291   0.08726
C    -1.38646  -2.25261  -0.40173
O     0.86704  -1.86295   0.21853
N     0.48563   0.77401   0.98682
C     0.10414   1.74557   2.03916
C     1.77114   0.61164   0.77548
C     2.40955  -0.02796  -0.39233
O     3.52624  -0.50702  -0.32594
O     1.72060   0.10630  -1.52532
C     2.27218  -0.52441  -2.68852
H    -5.03228  -0.12727   0.59931
H    -4.38418   1.00174  -0.62624
H    -4.45683   1.49427   1.08256
H    -2.89229  -0.85205   1.03802
H    -1.96386  -2.66002   0.44520
H    -2.08272  -1.73519  -1.07414
H    -0.92729  -3.09955  -0.92874
H    -0.26179   2.65835   1.55730
H    -0.68716   1.31221   2.66158
H     0.98465   1.97506   2.64824
H     2.46051   1.04613   1.50060
H     3.24958  -0.08822  -2.94059
H     1.55598  -0.34269  -3.49798
H     2.38373  -1.60439  -2.51525
