40
Generated by autodE on: 2022-10-21. E = -993.390331 Ha. Imaginary frequency = -337.2 cm-1
C    -4.19317   1.33951   0.38539
N    -2.83403   0.83708   0.41640
C    -1.93025   1.20150  -0.50282
O    -2.15911   2.05292  -1.37374
C    -0.59644   0.48997  -0.43742
C    -0.50702  -0.83074  -1.04554
C    -1.81269  -1.53024  -1.36590
O     0.55957  -1.40685  -1.30399
C    -0.19517  -0.85082   1.67821
O    -1.43752  -1.24575   1.88834
C    -1.63671  -2.00460   3.10108
C     1.02296  -0.69578   1.86248
C     2.31029  -0.83086   2.57542
C     1.69982   0.72068   0.17396
C     2.48278  -0.07173  -0.81315
O     3.33562  -0.88820  -0.51742
O     2.32712   0.40895  -2.05802
C     3.04899  -0.26955  -3.09217
N     0.48251   1.24844  -0.06105
C     0.17600   2.46013   0.72400
H    -4.69953   1.06499  -0.55469
H    -4.74990   0.90901   1.22673
H    -4.21186   2.43709   0.47095
H    -2.57564   0.10852   1.08221
H    -1.58228  -2.45106  -1.91694
H    -2.35434  -1.78895  -0.44494
H    -2.47079  -0.89537  -1.97850
H    -2.70406  -2.25500   3.13592
H    -1.02855  -2.92103   3.06941
H    -1.35659  -1.39574   3.97401
H     2.19390  -1.49606   3.44699
H     2.67569   0.14393   2.93765
H     3.09057  -1.24562   1.92180
H     2.35161   1.34188   0.79194
H     4.13335  -0.20461  -2.92034
H     2.78525   0.23658  -4.02844
H     2.74869  -1.32664  -3.13692
H    -0.27356   2.16932   1.68482
H    -0.51852   3.09413   0.16463
H     1.10214   3.01706   0.89670
