37
Generated by autodE on: 2022-06-30. E = -3494.412392 Ha
C    -0.87763  -3.00579   3.21675
O    -0.41362  -2.18100   2.13143
C     0.35232  -2.76403   1.22265
O     0.69067  -3.92774   1.24759
C     0.74862  -1.82940   0.06600
C     2.24139  -2.09459  -0.20222
O     2.68744  -2.55486  -1.22640
O     2.97170  -1.74938   0.85410
C     4.39145  -1.96399   0.76535
C     0.48802  -0.42240   0.34236
C    -0.08423   0.64457   0.29181
C    -1.11417   1.58316  -0.08000
Br   -0.34167   2.82283  -1.51413
C    -1.53509   2.59362   1.00708
C    -0.47952   3.02258   1.98205
O    -2.68622   2.97679   1.05445
C    -2.29152   0.79351  -0.67293
C    -1.93999  -0.31856  -1.67889
C    -1.58757  -1.73289  -1.13431
C    -0.11583  -2.19000  -1.18506
H    -1.48082  -3.83768   2.82740
H    -0.02262  -3.39944   3.78372
H    -1.48846  -2.35126   3.84807
H     4.60364  -3.03238   0.61764
H     4.81162  -1.38361  -0.06803
H     4.80705  -1.61987   1.71884
H     0.48708   3.19338   1.48741
H    -0.80622   3.92156   2.52007
H    -0.33422   2.20213   2.70573
H    -2.98161   1.51778  -1.12732
H    -2.82352   0.35719   0.18993
H    -1.14360   0.03351  -2.35542
H    -2.83184  -0.43239  -2.31305
H    -2.14086  -2.45766  -1.75010
H    -1.98757  -1.85354  -0.11395
H    -0.06225  -3.28249  -1.30094
H     0.38603  -1.75103  -2.05940
