21
Generated by autodE on: 2022-06-30. E = -607.999634 Ha
C    -1.47753  -2.05582  -0.87628
N    -1.49419  -0.67321  -0.42369
N    -2.69115  -0.00265  -0.39954
C    -2.40165   1.23736  -0.00531
O    -3.08440   2.22991   0.17784
O    -0.97662   1.30181   0.22576
C    -0.49089   0.09340  -0.04075
C     0.93066  -0.18504   0.09798
C     1.83400   0.88667  -0.04959
C     3.20256   0.66762   0.08707
C     3.68394  -0.61326   0.37999
C     2.78997  -1.67581   0.54395
C     1.41766  -1.46974   0.40727
H    -0.51127  -2.28331  -1.33925
H    -2.27670  -2.16521  -1.61797
H    -1.66200  -2.73579  -0.03302
H     1.45541   1.88348  -0.27945
H     3.89809   1.50033  -0.03603
H     4.75766  -0.78179   0.48848
H     3.16145  -2.67248   0.79060
H     0.73177  -2.29927   0.57389
