58
Generated by autodE on: 2022-06-30. E = -4102.383670 Ha. Imaginary frequency = -422.3 cm-1
C     3.45458 -11.17448  -1.56711
O     2.55338 -10.35698  -0.80039
C     3.03870  -9.22773  -0.30431
O     4.18310  -8.85780  -0.45407
C     2.00014  -8.38936   0.46477
C     0.69328  -9.14522   0.75714
O     0.26700  -9.38327   1.86481
O     0.03038  -9.43593  -0.35815
C    -1.22256 -10.12052  -0.20570
C     1.63558  -7.16937  -0.44223
C     0.57875  -6.23368   0.18929
C     1.04691  -4.82081   0.56873
C     1.81025  -4.61735   1.88130
C     3.17618  -5.29722   2.05576
Br    4.35490  -4.81773   0.44928
C     3.96171  -4.70720   3.26646
C     5.43015  -4.99837   3.41496
O     3.36609  -3.99949   4.05086
C     3.04238  -6.74935   2.12926
C     2.63657  -7.87345   1.72335
C     2.90948  -9.16438   3.30326
C     2.78213 -10.59838   2.96926
C     3.63236 -11.20636   2.03306
C     3.48859 -12.56195   1.73220
C     2.49654 -13.32015   2.35801
C     1.64670 -12.71716   3.29190
C     1.78504 -11.36434   3.59676
O     1.91983  -8.61836   4.10087
C     2.42102  -7.40939   4.54488
O     1.74636  -6.59521   5.13036
N     3.75929  -7.34630   4.18897
N     4.06919  -8.58412   3.76593
C     5.39149  -8.78623   3.21158
H     2.89017 -12.07664  -1.82686
H     4.33890 -11.43286  -0.96940
H     3.76537 -10.63978  -2.47569
H    -1.06960 -11.08534   0.29852
H    -1.92415  -9.50749   0.37772
H    -1.60461 -10.27632  -1.22079
H     1.27052  -7.56810  -1.39795
H     2.57119  -6.63645  -0.65317
H    -0.23914  -6.11881  -0.53741
H     0.12084  -6.70594   1.07437
H     0.14775  -4.19016   0.65692
H     1.63020  -4.39323  -0.26245
H     1.20060  -4.97091   2.72946
H     1.96006  -3.53852   2.03119
H     5.98869  -4.12456   3.04158
H     5.65621  -5.11562   4.48249
H     5.75294  -5.88195   2.85517
H     4.39727 -10.62572   1.52116
H     4.15082 -13.02105   0.99574
H     2.38244 -14.37942   2.11707
H     0.86886 -13.30400   3.78519
H     1.11684 -10.89454   4.31767
H     5.64241  -9.85219   3.23066
H     5.43038  -8.40756   2.17695
H     6.10220  -8.23248   3.83446
