34
Generated by autodE on: 2022-06-17. E = -765.524294 Ha
C     2.77936   2.32309   0.24047
O     1.87582   1.24224   0.52912
C     1.26899   0.67681  -0.50976
O     1.46496   0.99496  -1.66090
C     0.30113  -0.44401  -0.09184
C     0.79316  -1.70598  -0.83878
C     1.33862  -2.83532  -0.02159
O     0.73050  -1.73785  -2.05160
N     0.37800  -0.63947   1.38493
N    -0.60065  -0.17005   1.97368
C    -1.58649   0.48144   1.05989
C    -1.35292   1.99468   1.18355
C    -2.99126   0.16116   1.56425
C    -1.22376  -0.11172  -0.34773
C    -1.99321  -1.42046  -0.60563
C    -1.49934   0.83857  -1.51133
H     3.59520   1.97415  -0.40794
H     2.24041   3.14478  -0.25193
H     3.17263   2.64996   1.20940
H     1.65123  -3.65112  -0.68582
H     2.18714  -2.48285   0.58463
H     0.57310  -3.19107   0.68579
H    -2.13177   2.53880   0.63095
H    -0.37131   2.30849   0.80616
H    -1.41744   2.28833   2.24161
H    -3.74253   0.54132   0.85625
H    -3.15113  -0.91655   1.69883
H    -3.15706   0.65388   2.53366
H    -3.07218  -1.22225  -0.64577
H    -1.70556  -1.85218  -1.57224
H    -1.81314  -2.17350   0.17575
H    -1.17380   0.38054  -2.45605
H    -2.58270   1.02406  -1.57717
H    -0.99290   1.80590  -1.41566
