18
Generated by autodE on: 2022-06-17. E = -235.968070 Ha
C     1.79024  -0.82480  -0.02109
C     0.65202   0.16562  -0.07717
C     1.14544   1.57075  -0.32564
C    -0.65202  -0.16564   0.07707
C    -1.14545  -1.57074   0.32566
C    -1.79024   0.82481   0.02112
H     2.50273  -0.54573   0.77598
H     2.36634  -0.80078  -0.96356
H     1.47983  -1.86163   0.15516
H     1.84802   1.87722   0.47015
H     0.35200   2.32554  -0.38090
H     1.71907   1.61461  -1.26889
H    -1.71856  -1.61463   1.26923
H    -1.84850  -1.87706  -0.46977
H    -0.35205  -2.32562   0.38043
H    -1.47990   1.86151  -0.15602
H    -2.50329   0.54525  -0.77525
H    -2.36567   0.80144   0.96402
