16
Generated by autodE on: 2022-06-17. E = -529.530919 Ha
C    -2.91044  -0.56341   1.34428
O    -1.89935  -0.33241   0.35203
C    -0.64715  -0.15767   0.79692
O    -0.33457  -0.18310   1.97167
C     0.29103   0.06749  -0.31024
N    -0.21007   0.05705  -1.53807
N    -0.57657   0.05877  -2.59992
C     1.74716   0.30769  -0.24995
C     2.39867   0.33168   1.10331
O     2.37915   0.47871  -1.28730
H    -2.68817  -1.47689   1.91445
H    -2.97711   0.29189   2.03196
H    -3.85000  -0.68034   0.79233
H     1.94972   1.11341   1.73409
H     3.47146   0.52113   0.96893
H     2.24286  -0.62524   1.62343
