34
Generated by autodE on: 2022-06-17. E = -765.470715 Ha. Imaginary frequency = -407.5 cm-1
C     2.41325   2.67106  -0.18854
O     1.71817   1.54679   0.36584
C     1.62695   0.45272  -0.40943
O     2.12943   0.38181  -1.51862
C     0.80601  -0.59049   0.20596
C     0.79279  -2.00184  -0.17712
C     1.30346  -2.38983  -1.53827
O     0.32100  -2.84138   0.59366
N     0.39503  -0.34530   1.50229
N    -0.56533   0.10458   1.98786
C    -1.89304   0.64731   0.65057
C    -1.79489   2.14188   0.88364
C    -3.07132  -0.00996   1.34385
C    -1.47082   0.12035  -0.60183
C    -2.00088  -1.21136  -1.05404
C    -1.00444   1.02532  -1.70646
H     2.37363   3.45531   0.57621
H     3.45826   2.40980  -0.40927
H     1.91924   3.01370  -1.10915
H     0.85386  -1.77369  -2.32919
H     1.07390  -3.45042  -1.70482
H     2.39149  -2.22995  -1.59163
H    -2.56166   2.67354   0.29382
H    -0.81230   2.54420   0.60295
H    -1.96875   2.37653   1.94445
H    -2.97770  -1.10282   1.39534
H    -4.00456   0.22227   0.80186
H    -3.17357   0.37189   2.37028
H    -3.06562  -1.10288  -1.33414
H    -1.46464  -1.57767  -1.93948
H    -1.95140  -1.97827  -0.26975
H    -0.38211   0.49171  -2.43780
H    -1.89767   1.39244  -2.24834
H    -0.45878   1.90815  -1.35415
