53
Generated by autodE on: 2022-06-25. E = -1434.136463 Ha
C    -2.32167   2.71301   1.73820
O    -1.52055   1.54442   1.91305
C    -1.20408   0.76408   0.80575
C    -2.39787  -0.10423   0.38426
O    -3.52907   0.19281   0.72749
C    -2.13740  -1.33759  -0.39625
C    -3.20575  -1.80650  -1.33187
C    -1.03445  -2.07969  -0.10983
C    -0.80063  -3.43278  -0.70817
C    -0.08738  -1.61237   0.92327
O     0.61606  -2.38738   1.55066
C     0.08202  -0.10330   1.15933
O     0.60692   0.17591   2.41289
C    -0.08092  -0.34708   3.55221
C     1.13685   0.43322   0.09023
C     2.32779  -0.46215  -0.09346
C     2.30614  -1.47229  -1.06807
C     3.36346  -2.37728  -1.17273
C     4.44963  -2.29271  -0.29668
C     4.46673  -1.30147   0.68797
C     3.41117  -0.39217   0.79412
C     1.39018   1.89456   0.55685
O     2.32648   2.41692   1.09552
O     0.26805   2.57429   0.21062
C    -0.62339   1.59341  -0.40924
C    -1.63162   2.25395  -1.35249
C    -1.47589   3.69934  -1.68324
O    -2.49585   1.53152  -1.80972
N     0.25612   0.66003  -1.06641
C     0.89616   1.16385  -2.28808
H    -2.75311   2.94181   2.72228
H    -1.70066   3.56377   1.41785
H    -3.14321   2.55591   1.02721
H    -3.67896  -2.72987  -0.95695
H    -3.98399  -1.04543  -1.46464
H    -2.76782  -2.05151  -2.31261
H     0.17359  -3.83722  -0.40827
H    -0.84596  -3.37786  -1.80717
H    -1.58390  -4.14238  -0.39221
H     0.01998   0.39322   4.35781
H    -1.14980  -0.50265   3.34843
H     0.37100  -1.29849   3.86862
H     1.45015  -1.56940  -1.73609
H     3.33216  -3.15643  -1.93760
H     5.27644  -3.00226  -0.37671
H     5.30554  -1.23524   1.38465
H     3.42807   0.36852   1.57195
H    -0.45804   3.88642  -2.06053
H    -2.22481   3.98970  -2.43016
H    -1.59321   4.30563  -0.77159
H     0.12598   1.31711  -3.05555
H     1.59795   0.41434  -2.66757
H     1.44568   2.10980  -2.13715
