26
Generated by autodE on: 2022-06-25. E = -689.460844 Ha
C    -2.78294   1.94009   0.09576
O    -1.35457   2.01736   0.15010
C    -0.57095   0.94599   0.03236
C    -0.91171  -0.34525  -0.24028
O    -2.19369  -0.73847  -0.49829
C    -2.82881  -1.51567   0.52228
C     0.13384  -1.38443  -0.35312
O    -0.18515  -2.53420  -0.65139
C     1.56562  -1.02668  -0.11903
C     2.57839  -2.12388  -0.21104
C     1.91721   0.25648   0.14368
C     3.34188   0.66392   0.36081
C     0.87655   1.31336   0.22527
O     1.16205   2.47987   0.45891
H    -3.13361   2.96631   0.26357
H    -3.12332   1.58545  -0.88543
H    -3.17130   1.28554   0.88915
H    -3.84703  -1.72483   0.16835
H    -2.88000  -0.94879   1.46670
H    -2.29921  -2.46463   0.69229
H     2.10007  -3.08889  -0.41500
H     3.30741  -1.91384  -1.01152
H     3.15532  -2.20100   0.72517
H     3.77946   0.11345   1.20993
H     3.95555   0.41997  -0.52205
H     3.42269   1.73900   0.55932
