53
Generated by autodE on: 2022-06-25. E = -1434.117332 Ha. Imaginary frequency = -218.5 cm-1
C    -3.04595   2.41319   2.06481
O    -2.07191   2.51745   1.02509
C    -1.50365   1.32344   0.59840
C    -2.46573   0.42102  -0.15051
O    -3.52679   0.87587  -0.55615
C    -2.03864  -0.96602  -0.40772
C    -2.78565  -1.74894  -1.44435
C    -1.00624  -1.49584   0.30313
C    -0.52078  -2.88531   0.03915
C    -0.34601  -0.75517   1.43056
O     0.38355  -1.38131   2.22144
C    -0.64002   0.65258   1.55513
O    -0.23911   1.43820   2.56939
C     0.36760   0.93916   3.76556
C     1.32917   0.59140  -0.46439
C     2.21414  -0.56055  -0.53130
C     2.45313  -1.30343  -1.70973
C     3.27756  -2.42535  -1.68172
C     3.88336  -2.83385  -0.48822
C     3.67670  -2.09343   0.67827
C     2.85743  -0.96627   0.66179
C     1.53541   1.72652   0.43207
O     2.37257   1.96758   1.27361
O     0.55469   2.64589   0.10942
C    -0.37883   2.00333  -0.69466
C    -1.18488   2.97349  -1.54857
C    -0.96908   4.42978  -1.28356
O    -1.95521   2.54552  -2.38595
N     0.31093   0.93557  -1.30137
C    -0.12967   0.22348  -2.49957
H    -2.62900   1.91885   2.95535
H    -3.32977   3.44183   2.32385
H    -3.93791   1.86733   1.72249
H    -3.21615  -2.66705  -1.01277
H    -3.59742  -1.15152  -1.87721
H    -2.11059  -2.06743  -2.25578
H    -0.30421  -3.01598  -1.03304
H     0.37954  -3.11048   0.62140
H    -1.29686  -3.62698   0.29547
H     1.35915   0.51427   3.57252
H    -0.27269   0.18604   4.24563
H     0.45973   1.81532   4.42071
H     2.02927  -0.99270  -2.66067
H     3.45462  -2.98181  -2.60461
H     4.52399  -3.71843  -0.47257
H     4.15360  -2.39563   1.61317
H     2.70364  -0.39924   1.57553
H    -1.67171   5.01678  -1.88785
H     0.06882   4.69639  -1.54197
H    -1.10090   4.64322  -0.21324
H    -1.15678   0.50985  -2.72893
H    -0.07716  -0.85647  -2.33799
H     0.51369   0.50037  -3.34773
