12
Generated by autodE on: 2022-05-28. E = -414.887598 Ha
C    -2.22569   0.21782  -0.05205
C    -0.96680  -0.58316   0.04532
O    -0.95807  -1.80052   0.16730
C     0.35509   0.10356  -0.00536
C     1.52216  -0.70805   0.08224
N     2.46986  -1.37809   0.15510
N     0.54461   1.41675  -0.12751
O    -0.31219   2.30560  -0.22028
H    -3.08288  -0.46560  -0.00299
H    -2.27103   0.95537   0.76415
H    -2.24030   0.79147  -0.99161
H     1.53982   1.72084  -0.14797
