27
Generated by autodE on: 2022-05-28. E = -906.957639 Ha. Imaginary frequency = -347.4 cm-1
C     2.55665   1.68208   0.19318
C     2.32298   0.36390  -0.47456
O     2.77437   0.08174  -1.56995
C     1.49220  -0.69897   0.21284
C     1.64600  -2.02157  -0.32104
N     1.73137  -3.09018  -0.76672
N     1.09827  -0.62203   1.50605
O     0.54873   0.47623   1.89092
C    -0.93817   0.70856   0.67720
C    -1.03620   2.12677   0.76667
N    -1.12508   3.28200   0.85622
C    -2.00412  -0.23529   1.31992
C    -3.23287  -0.19014   0.40750
C    -2.86992  -0.84753  -0.70012
C    -1.42312  -1.28706  -0.45243
O    -1.41979  -1.49204   0.96437
C    -0.55408   0.01386  -0.51337
C    -0.26959   0.65268  -1.74478
N    -0.02461   1.15065  -2.76844
H     3.39615   2.17755  -0.31089
H     1.65661   2.30784   0.08511
H     2.75247   1.57049   1.26806
H     0.74980  -1.48420   1.94638
H    -2.13787  -0.12069   2.39893
H    -4.15908   0.33521   0.63518
H    -3.41752  -1.00701  -1.62785
H    -1.03680  -2.14902  -1.00357
