45
Generated by autodE on: 2022-10-22. E = -1278.466796 Ha
C    -1.85668   4.45500  -0.70546
O    -0.97809   3.31914  -0.77704
C    -1.31119   2.26475  -0.04740
O    -2.29441   2.20210   0.66327
C    -0.33726   1.12823  -0.18782
N     0.74625   1.24216  -0.84897
C     1.49534  -0.01674  -0.82637
C     2.10319  -0.25884  -2.20410
C     2.58534   0.11346   0.25049
O     2.53030   0.88183   1.18654
O     3.59982  -0.71657   0.03337
C     4.64228  -0.73417   1.02102
C     0.44518  -1.11405  -0.36236
O     1.10447  -2.07781   0.37799
C     0.31295  -3.11751   0.96211
O    -0.29156  -1.64538  -1.42416
C     0.26712  -2.69761  -2.21641
C    -0.57682  -0.22807   0.47337
O    -0.13935  -0.29896   1.80338
C    -0.57584   0.69537   2.72128
C    -2.03097  -0.70628   0.35387
O    -2.58267  -1.37710   1.19821
O    -2.60296  -0.28551  -0.76649
C    -3.98514  -0.62062  -0.96321
H    -2.86460   4.17746  -1.04557
H    -1.42326   5.21139  -1.36901
H    -1.90730   4.83192   0.32592
H     1.31402  -0.24116  -2.96602
H     2.62650  -1.22030  -2.24582
H     2.82174   0.54170  -2.42975
H     4.23479  -1.03930   1.99562
H     5.37756  -1.46648   0.66910
H     5.10372   0.25943   1.10982
H    -0.33763  -3.59941   0.21809
H     1.02295  -3.85801   1.35224
H    -0.30177  -2.72622   1.78324
H     1.21447  -3.06367  -1.80135
H    -0.45703  -3.52592  -2.23504
H     0.43155  -2.34330  -3.24366
H    -0.15041   1.68297   2.47872
H    -1.67270   0.76709   2.76223
H    -0.19713   0.38347   3.70382
H    -4.26180  -0.19810  -1.93551
H    -4.59666  -0.17607  -0.16501
H    -4.11688  -1.71176  -0.96806
