21
Generated by autodE on: 2022-10-22. E = -628.048846 Ha
C    -3.73049   1.51110   0.70098
O    -2.46208   1.17037   0.11087
C    -2.32244  -0.08530  -0.31137
O    -3.17035  -0.95339  -0.25135
C    -1.03005  -0.28443  -0.96525
N     0.02581  -0.71924  -0.56863
C     1.19722  -1.13577  -0.24124
C     1.56607  -2.58772  -0.27700
C     2.20526  -0.14531   0.18443
O     3.33450  -0.45797   0.52158
O     1.75282   1.11422   0.15757
C     2.67717   2.13755   0.55018
H    -3.66039   2.57252   0.96369
H    -3.90928   0.90694   1.60166
H    -4.54292   1.34888  -0.02154
H     1.85986  -2.93433   0.72685
H     2.42685  -2.74615  -0.94635
H     0.72141  -3.19353  -0.62957
H     2.13351   3.08520   0.46189
H     3.00491   1.98325   1.58866
H     3.55471   2.13994  -0.11282
