24
Generated by autodE on: 2022-10-22. E = -650.341950 Ha
C     1.23195  -1.99434   2.62977
O     0.51905  -1.34880   1.57114
C     1.05618  -0.20837   1.09622
O     2.09591   0.25796   1.54982
C     0.30815   0.44061   0.02314
O     0.83532   1.65560  -0.38178
C     1.78331   1.54279  -1.44025
C    -0.80286  -0.04520  -0.63017
O    -1.50536   0.62044  -1.54163
C    -1.67008   2.04702  -1.50656
O    -1.23447  -1.28757  -0.43327
C    -2.55576  -1.64644  -0.86549
H     0.65905  -2.89757   2.87259
H     1.29820  -1.34293   3.51410
H     2.24801  -2.26929   2.30933
H     2.14376   2.55719  -1.66368
H     2.63806   0.91250  -1.14258
H     1.31929   1.11554  -2.34616
H    -2.60741   2.24358  -2.04299
H    -0.83796   2.55302  -2.01133
H    -1.75256   2.39895  -0.46938
H    -2.72468  -2.65621  -0.47271
H    -3.30469  -0.95398  -0.45479
H    -2.62129  -1.65719  -1.96235
