45
Generated by autodE on: 2022-10-22. E = -1278.371515 Ha. Imaginary frequency = -430.5 cm-1
C    -3.08625   3.70069  -0.60987
O    -2.07232   2.70390  -0.83831
C    -1.11647   2.60084   0.07883
O    -1.01981   3.27847   1.08024
C    -0.23907   1.45597  -0.22719
N     0.82452   1.31225  -0.79610
C     1.72435   0.33634  -1.00058
C     2.01185  -0.07342  -2.41108
C     2.68394   0.14015   0.09430
O     2.61046   0.66695   1.19547
O     3.63177  -0.75434  -0.22624
C     4.47737  -1.19528   0.84102
C     0.22082  -1.42726  -0.24609
O     1.18823  -2.20781   0.28232
C     0.81893  -3.21558   1.24368
O    -0.22489  -1.76924  -1.47296
C     0.26694  -2.97271  -2.07090
C    -0.61530  -0.63368   0.59143
O    -0.20407  -0.63665   1.90230
C    -0.34355   0.55169   2.67445
C    -2.07520  -0.47795   0.37824
O    -2.87190  -0.40457   1.30091
O    -2.43960  -0.36780  -0.90459
C    -3.82663  -0.11401  -1.15843
H    -2.63813   4.70406  -0.59607
H    -3.78849   3.60630  -1.44504
H    -3.59425   3.50629   0.34502
H     1.07158  -0.19611  -2.96768
H     2.56177  -1.02110  -2.42487
H     2.62595   0.68281  -2.92983
H     5.15883  -1.93362   0.40229
H     3.87694  -1.66088   1.63679
H     5.04944  -0.35486   1.26023
H    -0.23906  -3.49521   1.13307
H     1.45278  -4.08991   1.04246
H     0.99901  -2.84812   2.26246
H    -0.15478  -2.99115  -3.08319
H    -0.08013  -3.85574  -1.51204
H     1.36322  -2.98278  -2.12639
H    -0.04512   0.28742   3.69807
H     0.32615   1.34006   2.29943
H    -1.38006   0.91593   2.68197
H    -3.91458   0.01129  -2.24390
H    -4.44461  -0.96034  -0.82463
H    -4.15274   0.80133  -0.64439
