43
Generated by autodE on: 2022-05-30. E = -1145.371716 Ha
C     2.50581  -0.79823   3.43607
N     2.24896  -0.52332   2.03403
C     1.22596   0.23346   1.65123
O     0.45822   0.79964   2.43952
C     0.97615   0.37690   0.12486
C     2.29590   0.24605  -0.65373
O     2.90037  -0.83405  -0.66530
N     2.75091   1.34806  -1.25107
C     4.00264   1.35665  -1.98617
N     0.39631   1.73085  -0.09025
N    -0.78350   1.71506  -0.45737
C    -1.36266   0.35481  -0.56850
C    -2.56710   0.34714   0.40319
O    -3.72498   0.27383  -0.01763
N    -2.27447   0.49871   1.69927
C    -3.32073   0.56532   2.70100
C    -1.72942   0.05224  -2.04063
C    -2.35637  -1.35923  -2.13099
C    -1.15879  -2.30485  -1.83573
C     0.02485  -1.33366  -1.65224
C    -0.33650  -0.20949  -2.64472
C    -0.15445  -0.61371  -0.30555
F    -0.39475  -1.51564   0.72390
H     3.41943  -1.39877   3.51520
H     2.64119   0.13779   3.99769
H     1.66964  -1.35322   3.89031
H     2.78635  -0.99513   1.30681
H     2.20629   2.20154  -1.16035
H     4.15953   2.35902  -2.40119
H     3.97826   0.62640  -2.80918
H     4.84779   1.10368  -1.32729
H    -1.30042   0.61263   1.99911
H    -3.98341   1.42970   2.53269
H    -2.85546   0.66129   3.68974
H    -3.94268  -0.34349   2.68653
H    -2.32991   0.84959  -2.49329
H    -2.73862  -1.50773  -3.15119
H    -3.19250  -1.49413  -1.43855
H    -1.31600  -2.92894  -0.94680
H    -0.95013  -2.97459  -2.68161
H     1.01082  -1.79474  -1.75601
H    -0.39069  -0.57749  -3.67860
H     0.33655   0.65756  -2.62472
