24
Generated by autodE on: 2022-05-30. E = -580.266510 Ha
C     3.71203   0.29726   0.58779
N     2.38774   0.21958   0.00645
C     1.36020  -0.36889   0.65869
O     1.50878  -0.89476   1.77512
C     0.04586  -0.36736  -0.00787
C    -0.41242   0.35160  -1.05159
F     0.28344   1.21461  -1.80029
C    -1.90474   0.21819  -1.16774
C    -2.48526   0.99039   0.06795
C    -2.00703   0.13232   1.27529
C    -1.20193  -1.01482   0.58717
C    -2.05101  -1.24118  -0.68277
H     4.38920   0.76994  -0.13412
H     3.71530   0.89217   1.51621
H     4.09995  -0.70451   0.83158
H     2.21710   0.66043  -0.89025
H    -2.33131   0.49864  -2.13818
H    -2.12461   2.02804   0.10184
H    -3.58239   1.01510  -0.00198
H    -1.37830   0.69316   1.98106
H    -2.85969  -0.28087   1.83432
H    -1.00079  -1.88243   1.22618
H    -3.09419  -1.51562  -0.46592
H    -1.60632  -1.97062  -1.37502
