43
Generated by autodE on: 2022-05-30. E = -1145.310797 Ha. Imaginary frequency = -407.8 cm-1
C     2.21114  -1.22049   3.40967
N     2.21995  -0.59213   2.10368
C     1.29089   0.30355   1.76059
O     0.45014   0.76549   2.54757
C     1.24210   0.67602   0.30290
C     2.42362   0.46785  -0.58974
O     3.06470  -0.59277  -0.51387
N     2.73240   1.43271  -1.46903
C     3.78180   1.24365  -2.45476
N     0.48562   1.79659   0.08296
N    -0.59288   2.07338  -0.23187
C    -1.47097   0.07681  -0.54372
C    -2.62004   0.29715   0.37274
O    -3.77317   0.40557  -0.08058
N    -2.36509   0.38566   1.69409
C    -3.42701   0.64228   2.64534
C    -1.68985  -0.00372  -2.05116
C    -2.29300  -1.41762  -2.32124
C    -1.10925  -2.37393  -1.99339
C     0.04446  -1.39223  -1.61790
C    -0.25266  -0.21418  -2.56694
C    -0.37059  -0.77370  -0.30132
F    -0.31826  -1.55752   0.80455
H     3.11088  -1.83925   3.51118
H     2.20628  -0.46346   4.20694
H     1.32163  -1.85997   3.53815
H     2.79519  -0.96522   1.34586
H     2.18951   2.28986  -1.49187
H     3.86160   2.15466  -3.05930
H     3.55415   0.39293  -3.11609
H     4.74978   1.05187  -1.96736
H    -1.39878   0.42567   2.02369
H    -4.22765  -0.10815   2.55651
H    -3.88240   1.63629   2.49649
H    -3.01152   0.59583   3.65998
H    -2.26308   0.82795  -2.47756
H    -2.59069  -1.49791  -3.37740
H    -3.18167  -1.60190  -1.70432
H    -1.33016  -3.06766  -1.16999
H    -0.81241  -2.97174  -2.86704
H     1.05088  -1.82454  -1.62672
H    -0.22393  -0.51600  -3.62338
H     0.40302   0.65314  -2.42922
