18
Generated by autodE on: 2022-06-04. E = -3033.824589 Ha
C     2.72297  -0.41385  -0.59331
C     1.59092  -1.40336  -0.57496
O     1.72530  -2.54584  -1.00965
C     0.28664  -1.00487  -0.03351
C    -0.28191   0.16940   0.30829
Br    0.35928   1.92071   0.29220
C    -1.76359  -0.15130   0.63216
C    -2.42892  -0.51947  -0.71333
C    -1.88429  -1.69292  -1.04679
C    -0.89137  -2.01020   0.09113
O    -1.59070  -1.44588   1.21756
H     2.86499   0.04522   0.39694
H     2.49847   0.40051  -1.30142
H     3.64372  -0.92188  -0.90843
H    -2.28334   0.55100   1.29198
H    -3.13712   0.10840  -1.25217
H    -2.02529  -2.30080  -1.93960
H    -0.60765  -3.05443   0.25056
