30
Generated by autodE on: 2022-07-27. E = -671.810241 Ha
C     0.60729   1.77024  -3.38713
O     0.63891   1.35867  -2.02509
C     1.79407   1.60901  -1.33529
O     2.71558   2.25297  -1.86122
C     1.78612   1.16220   0.01659
C     2.80969   1.67476   0.98418
N     0.78706   0.37958   0.55246
C     0.09526  -0.64497   0.05972
C     0.54663  -1.31194  -1.19030
C    -1.06531  -1.10772   0.82117
C    -1.68863  -0.27661   1.78335
C    -2.76445  -0.73565   2.54187
C    -3.26955  -2.02500   2.34679
C    -2.68638  -2.84893   1.37739
C    -1.60528  -2.39937   0.62197
H     1.41191   1.29303  -3.96812
H     0.70628   2.86313  -3.47901
H    -0.36766   1.45469  -3.78048
H     3.63290   0.95726   1.16295
H     2.34791   1.87264   1.96903
H     3.25962   2.60884   0.62082
H     0.58591   0.59629   1.53420
H     1.61635  -1.10928  -1.35578
H     0.39199  -2.39719  -1.12383
H     0.00875  -0.94768  -2.07974
H    -1.35798   0.75529   1.91901
H    -3.22557  -0.07106   3.27621
H    -4.11962  -2.37963   2.93386
H    -3.07680  -3.85517   1.20803
H    -1.16847  -3.06779  -0.11984
