48
Generated by autodE on: 2022-06-04. E = -3705.632859 Ha. Imaginary frequency = -242.1 cm-1
C    -0.25660   3.81502  -4.26940
O    -0.58613   3.49570  -2.91539
C     0.44480   3.24586  -2.08188
O     1.60784   3.47219  -2.40477
C     0.04697   2.78874  -0.75388
C     0.70415   3.52445   0.38428
N    -1.16125   2.20731  -0.48572
C    -1.80316   1.18385  -1.09091
C    -1.71233   0.96292  -2.56961
C    -2.89541   0.56181  -0.31841
C    -3.45249   1.17538   0.82606
C    -4.42048   0.52851   1.59533
C    -4.87394  -0.74536   1.24144
C    -4.34595  -1.36162   0.10168
C    -3.37710  -0.71922  -0.66788
C     0.09656  -0.32412  -0.72997
C    -0.07929  -0.73749   0.74020
O     0.31760   0.46033   1.42057
C     1.59609   0.57764   0.75949
C     2.21047  -0.80576   1.09468
C     3.65728  -1.00344   1.20299
C     4.20072  -2.35518   1.57942
O     4.40600  -0.05205   0.97691
C     1.13681  -1.62660   1.07873
Br    0.97791  -3.48275   1.21673
C     1.15565   0.54810  -0.71641
H     0.30947   2.99449  -4.73613
H     0.33852   4.73842  -4.32097
H    -1.21119   3.95495  -4.79084
H     0.36170   4.57418   0.44202
H     0.49543   3.04347   1.34946
H     1.79226   3.54562   0.23668
H    -1.35224   2.22929   0.51441
H    -2.32008   1.70771  -3.10999
H    -0.68453   1.04391  -2.94190
H    -2.08883  -0.03206  -2.83112
H    -3.15395   2.18513   1.11633
H    -4.83264   1.03402   2.47195
H    -5.63395  -1.24964   1.84236
H    -4.68729  -2.35776  -0.19022
H    -2.96762  -1.23704  -1.53537
H    -0.27032  -0.92412  -1.55852
H    -1.05920  -1.10340   1.06398
H     2.17289   1.43310   1.11695
H     3.99803  -3.07975   0.77398
H     5.28524  -2.28051   1.73291
H     3.71669  -2.73892   2.49020
H     1.81070   0.82701  -1.53916
