18
Generated by autodE on: 2022-06-16. E = -588.797732 Ha
C    -3.42056  -0.70848   1.04061
O    -1.99571  -0.61586   0.95068
C    -1.49868   0.03395  -0.12833
O    -2.20914   0.52667  -0.99616
C    -0.06498   0.06696  -0.11704
N     0.74232  -0.50129   0.88013
C     2.00789  -0.30451   0.60860
C     3.18156  -0.73494   1.38655
O     2.13010   0.37110  -0.52429
C     0.79881   0.65175  -1.06252
O     0.70174   1.26534  -2.10612
H    -3.63140  -1.25633   1.96684
H    -3.83210  -1.25484   0.17886
H    -3.87565   0.29222   1.08409
H     0.39357  -0.99832   1.69875
H     3.78112   0.14500   1.66835
H     3.81496  -1.39088   0.76868
H     2.86406  -1.27095   2.28965
