30
Generated by autodE on: 2022-06-16. E = -746.072919 Ha. Imaginary frequency = -489.3 cm-1
C     3.73903  -1.32165  -0.27521
O     2.61863  -0.43486  -0.16340
C     1.52132  -0.76626  -0.86197
O     1.44614  -1.75377  -1.58018
C     0.42164   0.14758  -0.63599
N    -0.78951   0.00799  -1.27843
C    -1.69396   0.73783  -0.54995
C    -3.03321   1.10897  -1.08844
O    -0.97179   1.77698   0.01766
C     0.37434   1.38863   0.08041
O     1.19612   2.07106   0.66343
C    -1.93522  -0.46135   1.05652
C    -2.76455  -1.61371   0.52521
C    -0.62531  -0.71826   1.48920
C     0.04429  -0.00666   2.61827
H     4.08538  -1.37973  -1.31733
H     4.52422  -0.89608   0.36037
H     3.47212  -2.32917   0.07614
H    -1.05389  -0.87265  -1.71571
H    -2.92169   1.93492  -1.80856
H    -3.48700   0.25240  -1.60258
H    -3.69564   1.43631  -0.27594
H    -2.48474   0.28366   1.64610
H    -2.19661  -2.20641  -0.21016
H    -3.04361  -2.29638   1.34510
H    -3.69708  -1.27574   0.05166
H    -0.17273  -1.66755   1.18392
H    -0.35568   1.00830   2.76169
H     1.13407   0.05514   2.48048
H    -0.13029  -0.56610   3.55681
