53
Generated by autodE on: 2022-06-25. E = -1277.963220 Ha
C     0.99436  -2.65516   1.34230
N     1.39512  -1.36971   0.79932
C     2.25480  -0.54805   1.44650
C     2.74003   0.62834   0.95196
C     3.60530   1.42776   1.82725
N     4.00505   2.63416   1.34547
O     3.97583   1.04913   2.95784
C     2.35460   1.10394  -0.42552
C     1.76080  -0.04200  -1.25623
C     0.83341  -0.97255  -0.46251
C    -0.56822  -0.23188  -0.44029
C    -0.68331   0.71232   0.76490
C    -0.69551   2.10230   0.59645
C    -0.73818   2.96115   1.69962
C    -0.77129   2.44105   2.99511
C    -0.78382   1.05395   3.17561
C    -0.74858   0.20046   2.07222
C    -1.74563  -1.22721  -0.50970
C    -2.92808  -1.01684   0.21528
C    -4.01740  -1.88513   0.09262
C    -3.95238  -2.98062  -0.77024
C    -2.79107  -3.18808  -1.52051
C    -1.70606  -2.31830  -1.39538
N    -0.49008   0.54439  -1.69389
C    -1.66973   0.86698  -2.46521
C     0.78129   0.44381  -2.36347
C     0.75362  -0.53908  -3.48930
N     0.65339  -1.33592  -4.32628
C     1.18374   1.75450  -2.92965
N     1.46953   2.79225  -3.35937
H    -0.10238  -2.74653   1.37449
H     1.38328  -3.48430   0.72668
H     1.38421  -2.76049   2.36279
H     2.56756  -0.88103   2.43776
H     4.55269   3.23507   1.95148
H     3.64902   3.02105   0.48061
H     1.64375   1.94245  -0.35869
H     3.23553   1.48962  -0.96245
H     2.57290  -0.62653  -1.70579
H     0.70019  -1.88457  -1.05401
H    -0.65516   2.51591  -0.41109
H    -0.74118   4.04231   1.54120
H    -0.79564   3.10977   3.85884
H    -0.82270   0.63192   4.18270
H    -0.78212  -0.87557   2.23790
H    -3.01100  -0.16175   0.88483
H    -4.92260  -1.69659   0.67480
H    -4.80111  -3.66190  -0.86555
H    -2.72761  -4.02996  -2.21402
H    -0.82961  -2.49917  -2.01798
H    -2.48446   1.15098  -1.78619
H    -1.46184   1.73180  -3.11490
H    -2.02311   0.03147  -3.09854
