20
Generated by autodE on: 2022-06-25. E = -457.715335 Ha
C     2.99252  -1.03218   0.27218
N     1.81213  -0.18719   0.19070
C     1.90010   1.15913   0.56688
C     0.83137   1.97007   0.61556
C    -0.56573   1.51426   0.27368
C    -0.56839   0.03774  -0.08653
C    -1.81546  -0.65859  -0.44148
N    -2.94145   0.09832  -0.43445
O    -1.86809  -1.87039  -0.73444
C     0.58073  -0.69477  -0.09865
H     3.28688  -1.21977   1.31906
H     2.78544  -1.99542  -0.21136
H     3.83992  -0.55743  -0.24526
H     2.90652   1.50157   0.81428
H     0.98213   3.01093   0.91095
H    -1.24998   1.71501   1.12320
H    -0.97298   2.12553  -0.55801
H    -2.93568   1.08431  -0.20674
H    -3.82406  -0.34126  -0.67098
H     0.54807  -1.75445  -0.35719
