33
Generated by autodE on: 2022-07-27. E = -820.210114 Ha
C     1.29986   2.42049  -0.10001
N     0.88034   1.06896  -0.51160
C     0.02138   0.35033   0.19938
C    -0.22930   0.65485   1.61920
C    -1.54966   0.63454   2.10929
C    -1.80375   0.88714   3.45629
C    -0.74473   1.13561   4.33633
C     0.57151   1.13344   3.86275
C     0.83129   0.89947   2.51303
C    -0.70152  -0.78970  -0.39686
C    -0.84484  -1.98470   0.32894
C    -1.57615  -3.04836  -0.20229
C    -2.19011  -2.92161  -1.45083
C    -2.06489  -1.72730  -2.17254
C    -1.31826  -0.67122  -1.65801
C     1.48841   0.58932  -1.69741
C     1.75778  -0.77708  -1.85847
N     2.00117  -1.91361  -2.00670
C     1.82531   1.47659  -2.73038
N     2.12406   2.19574  -3.60688
H     0.61207   2.81580   0.65129
H     2.32734   2.39735   0.28502
H     1.26716   3.06616  -0.98719
H    -2.37538   0.43434   1.42471
H    -2.83258   0.88573   3.82250
H    -0.94484   1.32352   5.39363
H     1.40206   1.30873   4.54992
H     1.86186   0.88004   2.15614
H    -0.37048  -2.08095   1.30689
H    -1.66956  -3.97729   0.36433
H    -2.76882  -3.75099  -1.86365
H    -2.55423  -1.62007  -3.14305
H    -1.22046   0.25465  -2.22699
