33
Generated by autodE on: 2022-06-25. E = -820.210119 Ha
C    -1.88692   1.66312   1.10737
N    -0.57389   1.21530   0.60993
C    -0.38559  -0.00185   0.11738
C    -1.52187  -0.80943  -0.35996
C    -2.51345  -0.25480  -1.19224
C    -3.55103  -1.05192  -1.67393
C    -3.61864  -2.40526  -1.32633
C    -2.63385  -2.96551  -0.50523
C    -1.58390  -2.17850  -0.03514
C     0.96525  -0.58589   0.01264
C     1.33569  -1.29135  -1.14514
C     2.59038  -1.89716  -1.22979
C     3.47710  -1.82444  -0.15260
C     3.10797  -1.13638   1.01072
C     1.86686  -0.51141   1.09265
C     0.45287   2.18917   0.66566
C     1.46486   2.21348  -0.30441
N     2.31263   2.25664  -1.11204
C     0.47443   3.13991   1.69688
N     0.51394   3.95034   2.54323
H    -1.72639   2.16789   2.06906
H    -2.54240   0.80323   1.26371
H    -2.33693   2.37419   0.40277
H    -2.45699   0.79492  -1.48404
H    -4.30755  -0.61538  -2.32959
H    -4.43547  -3.02578  -1.70185
H    -2.68217  -4.02220  -0.23365
H    -0.81217  -2.61658   0.59983
H     0.64014  -1.35303  -1.98371
H     2.87303  -2.43161  -2.13930
H     4.45612  -2.30478  -0.21549
H     3.79371  -1.08863   1.85945
H     1.58694   0.02669   1.99972
