53
Generated by autodE on: 2022-06-25. E = -1277.892857 Ha. Imaginary frequency = -415.0 cm-1
C     0.07619  -2.07964   2.10116
N     0.97096  -1.33481   1.23162
C     1.95630  -0.54858   1.73452
C     2.89173   0.07904   0.96630
C     3.85650   0.94811   1.64841
N     4.85253   1.46544   0.88370
O     3.78687   1.22319   2.86498
C     2.98295  -0.20632  -0.51630
C     1.77471  -0.95354  -1.04792
C     0.76951  -1.41784  -0.15692
C    -0.97432   0.04838  -0.58757
C    -1.47097   0.46267   0.74853
C    -2.80434   0.19854   1.13525
C    -3.25604   0.49062   2.42051
C    -2.38970   1.05535   3.36337
C    -1.07418   1.34510   2.99402
C    -0.62116   1.05837   1.70629
C    -1.91194  -0.81404  -1.38274
C    -2.25108  -2.12159  -0.99342
C    -3.18093  -2.86512  -1.72062
C    -3.80274  -2.31401  -2.84634
C    -3.49903  -1.00376  -3.22515
C    -2.56909  -0.26079  -2.49660
N    -0.22220   0.95037  -1.34131
C     0.10428   2.30120  -0.87548
C     0.66382   0.40852  -2.28322
C     0.24331  -0.58897  -3.23503
N     0.05936  -1.41662  -4.03238
C     1.62843   1.28921  -2.86836
N     2.48026   1.94197  -3.32119
H    -0.97296  -1.82717   1.89316
H     0.29637  -1.83584   3.14741
H     0.20692  -3.16489   1.95384
H     1.95934  -0.42020   2.81760
H     4.96685   1.23767  -0.09572
H     5.53765   2.06958   1.32367
H     3.87952  -0.82043  -0.73228
H     3.15060   0.72428  -1.08334
H     1.97389  -1.59682  -1.90491
H     0.19599  -2.29058  -0.46147
H    -3.49780  -0.23975   0.41880
H    -4.29370   0.27688   2.68732
H    -2.74098   1.27462   4.37432
H    -0.38588   1.79304   3.71459
H     0.40864   1.29569   1.45708
H    -1.79637  -2.56231  -0.10657
H    -3.42211  -3.88268  -1.40441
H    -4.52634  -2.90003  -3.41773
H    -3.99020  -0.55396  -4.09129
H    -2.34105   0.76314  -2.79714
H     0.22053   2.95501  -1.74906
H     1.03237   2.33007  -0.28327
H    -0.72290   2.68655  -0.27337
