34
Generated by autodE on: 2022-05-28. E = -898.537453 Ha
C     4.96489   0.97996   0.64651
O     3.65964   0.90147   0.05281
C     2.99490  -0.23523   0.25616
O     3.39906  -1.19835   0.88482
N     1.78011  -0.24113  -0.39201
C     0.70722  -1.07593  -0.09374
C    -0.47135  -0.45603  -0.29870
C    -1.80366  -1.05472  -0.16249
C    -2.96696  -0.27348  -0.01265
C    -4.21848  -0.87693   0.13492
C    -4.34079  -2.26821   0.13718
C    -3.19390  -3.05665  -0.01668
C    -1.94460  -2.46005  -0.17113
C    -0.15765   0.98944  -0.70864
C    -0.78765   1.44920  -2.01358
C    -0.45807   1.96868   0.45995
C     0.58936   2.09674   1.52747
O    -1.50752   2.58379   0.48929
O     1.28366   0.96759  -0.91791
H     5.35430   1.96848   0.37796
H     5.61778   0.19206   0.24477
H     4.89657   0.88296   1.73940
H     0.91674  -2.08421   0.25507
H    -2.89835   0.81303   0.00725
H    -5.10454  -0.24845   0.25218
H    -5.32086  -2.73692   0.25165
H    -3.27525  -4.14621  -0.02750
H    -1.06559  -3.09051  -0.31736
H    -0.54572   0.73001  -2.80813
H    -1.87758   1.52138  -1.91674
H    -0.39634   2.43959  -2.28959
H     0.21477   2.73287   2.33916
H     1.50373   2.53211   1.09646
H     0.86167   1.10476   1.92192
