14
Generated by autodE on: 2022-05-28. E = -308.537347 Ha
C     3.18181  -0.04408  -0.48916
C     1.98072  -0.02794  -0.30422
C     0.56470  -0.00813  -0.08626
C    -0.15270  -1.21405   0.05351
C    -1.53110  -1.18924   0.26463
C    -2.21137   0.03106   0.33925
C    -1.50656   1.23181   0.20175
C    -0.12804   1.21771  -0.00962
H     4.24586  -0.05843  -0.65456
H     0.38054  -2.16474  -0.00531
H    -2.07815  -2.12867   0.37172
H    -3.29101   0.04631   0.50497
H    -2.03452   2.18636   0.25964
H     0.42424   2.15312  -0.11750
