34
Generated by autodE on: 2022-05-28. E = -898.418069 Ha. Imaginary frequency = -263.0 cm-1
C     5.06852  -0.00994  -0.74552
O     3.70332   0.41622  -0.64068
C     3.16510   0.37332   0.58465
O     3.76363   0.00400   1.58493
N     1.84807   0.78461   0.69039
C     0.66127  -0.96948   1.26523
C    -0.41711  -0.99451   0.65761
C    -1.70874  -1.33117   0.14457
C    -2.87455  -0.96793   0.85166
C    -4.13153  -1.30037   0.34721
C    -4.24840  -1.98957  -0.86435
C    -3.09688  -2.34802  -1.57427
C    -1.83447  -2.02082  -1.08069
C     0.03346   1.14455  -0.65576
C    -0.49993   0.99377  -2.03038
C    -0.83457   1.79271   0.37832
C    -0.27336   2.42190   1.61947
O    -2.03172   1.84437   0.11439
O     1.31389   0.94937  -0.55389
H     5.33566   0.09522  -1.80364
H     5.17186  -1.05874  -0.43137
H     5.72048   0.62307  -0.12613
H     1.45966  -1.26408   1.92807
H    -2.78192  -0.42931   1.79568
H    -5.02736  -1.01753   0.90488
H    -5.23530  -2.24710  -1.25539
H    -3.18247  -2.88557  -2.52142
H    -0.93475  -2.29593  -1.63391
H     0.25001   0.52826  -2.68148
H    -1.40860   0.37231  -2.00646
H    -0.79703   1.97484  -2.43667
H    -1.04188   3.08739   2.03525
H     0.64925   2.97913   1.40445
H    -0.01798   1.64805   2.35653
