26
Generated by autodE on: 2022-06-25. E = -689.460820 Ha
C    -3.10602   1.36720   0.11466
O    -1.75445   1.67043  -0.24608
C    -0.75538   0.80170  -0.09288
C    -0.77044  -0.43975   0.46995
O    -1.88407  -0.98435   1.04212
C    -2.49417  -2.06433   0.32744
C     0.47441  -1.23296   0.55981
O     0.45393  -2.33076   1.11385
C     1.74511  -0.68931  -0.00805
C     2.96725  -1.54768   0.07876
C     1.77356   0.54816  -0.56201
C     3.02720   1.14133  -1.12668
C     0.53554   1.36692  -0.62315
O     0.53277   2.49077  -1.10651
H    -3.68475   2.25756  -0.16216
H    -3.19668   1.18418   1.19298
H    -3.47796   0.49884  -0.44776
H    -3.37463  -2.36659   0.90989
H    -1.80876  -2.91909   0.23112
H    -2.81522  -1.73449  -0.67466
H     3.76018  -1.03873   0.65168
H     3.38043  -1.73885  -0.92546
H     2.74464  -2.50714   0.55993
H     3.42900   0.50687  -1.93384
H     2.84571   2.14618  -1.52576
H     3.81189   1.20304  -0.35470
