25
Generated by autodE on: 2022-06-25. E = -593.371011 Ha
C    -3.07779  -0.71080   1.28056
C    -1.66516  -0.30695   1.12294
N    -1.17764   0.19977   0.03890
C    -2.04604   0.45454  -1.12302
C     0.24059   0.42660  -0.10347
C     0.60953   1.78185  -0.35156
C     2.06444   2.14492  -0.56482
O    -0.25757   2.68532  -0.39757
C     1.11763  -0.70541  -0.03870
O     2.34567  -0.68586  -0.14690
O     0.45965  -1.89156   0.14567
C     1.27190  -3.06066   0.22166
H    -3.31857  -1.51979   0.56798
H    -3.75537   0.12744   1.04796
H    -3.26594  -1.06190   2.30168
H    -0.95577  -0.44928   1.94249
H    -2.88259   1.10546  -0.83735
H    -1.45535   0.93264  -1.90731
H    -2.44223  -0.50423  -1.48910
H     2.49378   1.59618  -1.41632
H     2.12530   3.22611  -0.75105
H     2.67364   1.88661   0.31424
H     1.84095  -3.21255  -0.70831
H     0.58226  -3.90048   0.37464
H     1.97759  -3.00206   1.06447
