25
Generated by autodE on: 2022-07-27. E = -593.371762 Ha
C     0.18253  -2.27518  -2.69823
C     0.56645  -1.42498  -1.55076
N    -0.26277  -0.66162  -0.91173
C    -1.67850  -0.60344  -1.31451
C     0.23730   0.31452   0.01506
C     1.24272   1.20076  -0.49275
C     1.72048   2.34727   0.37715
O     1.73950   1.06631  -1.63305
C    -0.32594   0.34030   1.33213
O    -0.09321   1.15293   2.22847
O    -1.19377  -0.69631   1.54402
C    -1.83939  -0.73273   2.81505
H    -0.56521  -3.02480  -2.38554
H    -0.28761  -1.67163  -3.49290
H     1.05982  -2.79353  -3.10258
H     1.59410  -1.42936  -1.18355
H    -2.21583   0.05655  -0.63003
H    -2.12112  -1.60772  -1.28796
H    -1.74541  -0.20498  -2.33771
H     0.88817   2.99259   0.69259
H     2.45128   2.93242  -0.19749
H     2.19244   1.97052   1.29690
H    -2.50119  -1.60783   2.79581
H    -2.43276   0.17839   2.98721
H    -1.10711  -0.83878   3.62994
