51
Generated by autodE on: 2022-06-25. E = -1282.813328 Ha. Imaginary frequency = -435.7 cm-1
C    -3.35685   0.57332   2.88783
O    -2.61181   0.47621   1.67203
C    -1.74535   1.47019   1.40503
O    -1.53057   2.35363   2.22686
C    -1.09106   1.33694   0.09588
C    -0.06442   2.30498  -0.32471
C     0.49149   3.30845   0.65758
O     0.36820   2.32912  -1.48787
N    -1.60401   0.44382  -0.84818
C    -3.02583   0.08799  -0.92019
C    -0.70363  -0.26379  -1.60750
C    -1.19832  -1.08653  -2.75979
C     0.19505  -1.49388  -0.39064
O    -0.63537  -2.59994  -0.44571
C    -0.14662  -3.79082   0.17827
C     1.47121  -1.58898  -1.18164
O     1.63394  -2.49770  -1.98379
C     2.45884  -0.48983  -1.02326
C     3.48157  -0.31244  -2.10220
C     2.43180   0.29178   0.08807
C     3.42818   1.39002   0.28991
C     1.43921   0.05854   1.17977
O     1.58098   0.59947   2.28283
C     0.34131  -0.87901   0.90093
O    -0.49367  -1.33331   1.81973
C    -0.36112  -1.10620   3.23232
H    -3.99134  -0.32016   2.92244
H    -3.98029   1.47989   2.88663
H    -2.69054   0.59649   3.76090
H    -0.28001   4.03585   0.94693
H     1.32363   3.82944   0.16672
H     0.83435   2.82645   1.58259
H    -3.62226   0.86762  -0.44118
H    -3.23046  -0.87576  -0.43439
H    -3.32100   0.03082  -1.97570
H     0.17845   0.33095  -1.84027
H    -1.96708  -1.81274  -2.47136
H    -1.61622  -0.41192  -3.52560
H    -0.36007  -1.62797  -3.21443
H    -0.95895  -4.52758   0.11695
H     0.10429  -3.62042   1.23625
H     0.73566  -4.18025  -0.35154
H     3.36515  -1.07063  -2.88593
H     3.38716   0.68751  -2.55708
H     4.50366  -0.37985  -1.69495
H     3.32349   2.14336  -0.50776
H     3.29461   1.87776   1.26142
H     4.45782   1.00213   0.22612
H     0.60488  -1.48934   3.58772
H    -1.18079  -1.67717   3.68412
H    -0.45078  -0.04372   3.47803
