51
Generated by autodE on: 2022-06-23. E = -1191.571473 Ha
C     4.88913   1.45911  -0.55288
C     3.79652   0.70683  -0.79375
C     3.69363  -0.18696  -2.00117
C     2.66079   0.75967   0.13304
C     1.52536   0.05229   0.00430
C     0.35324   0.19385   0.93257
C    -0.86968   0.84059   0.22931
C    -1.69533   1.76477   1.16805
C    -3.13607   1.95942   0.79983
O    -1.17134   2.31230   2.11614
C    -0.41824   1.71359  -0.95270
O    -0.56243   1.43219  -2.12024
O     0.16923   2.81936  -0.51048
C     0.76657   3.68234  -1.49298
O    -1.67490  -0.22871  -0.24391
C    -1.19734  -1.49854   0.21272
C    -0.56222  -2.28665  -0.96449
C    -0.84220  -1.78755  -2.34882
O     0.04749  -3.31632  -0.75004
C    -2.38828  -2.38276   0.65444
C    -3.77117  -1.83348   0.49318
O    -2.16292  -3.49023   1.10345
C    -0.24314  -1.15857   1.42196
C    -1.08930  -0.93507   2.69172
C     0.83775  -2.18608   1.75122
H     4.94643   2.10693   0.32715
H     5.75044   1.44769  -1.22668
H     4.60285  -0.13364  -2.61608
H     2.83130   0.09687  -2.62725
H     3.53453  -1.23740  -1.70578
H     2.76141   1.44608   0.98155
H     1.41423  -0.62555  -0.84583
H     0.63934   0.82158   1.78469
H    -3.26261   2.04020  -0.29025
H    -3.71256   1.07979   1.12565
H    -3.52903   2.85002   1.30677
H     1.18162   4.52885  -0.93508
H     1.56592   3.14597  -2.02384
H     0.00906   4.02836  -2.20962
H    -1.93377  -1.75850  -2.50472
H    -0.37629  -2.46192  -3.07839
H    -0.48827  -0.75637  -2.47690
H    -4.50265  -2.62499   0.69975
H    -3.91457  -1.00612   1.20565
H    -3.91420  -1.41755  -0.51437
H    -0.48812  -0.41426   3.45018
H    -1.40723  -1.89817   3.11400
H    -1.99528  -0.34089   2.51187
H     1.54989  -2.34165   0.93369
H     1.39948  -1.82777   2.62819
H     0.38303  -3.15307   2.00506
