23
Generated by autodE on: 2022-06-23. E = -351.521385 Ha
C    -3.70798  -0.72861   0.13245
C    -2.58172   0.01798   0.14029
C    -2.63685   1.51739   0.28432
C    -1.27705  -0.62740   0.00826
C    -0.07755   0.00661   0.00312
C     1.18958  -0.68309  -0.12902
C     2.42562  -0.12310  -0.14160
C     3.65470  -0.97505  -0.28665
C     2.68964   1.35063  -0.01739
H    -4.69666  -0.27163   0.23032
H    -3.66477  -1.81715   0.02770
H    -2.17564   2.01736  -0.58362
H    -3.67361   1.87072   0.37563
H    -2.07710   1.85194   1.17355
H    -1.29119  -1.71924  -0.09370
H    -0.05468   1.09513   0.10417
H     1.12754  -1.77360  -0.22831
H     4.33095  -0.83683   0.57613
H     4.23456  -0.67700  -1.17873
H     3.41195  -2.04452  -0.37082
H     1.77909   1.95436   0.08819
H     3.24383   1.71508  -0.90040
H     3.33800   1.55057   0.85398
