28
Generated by autodE on: 2022-07-27. E = -839.966175 Ha
C     2.36593   2.47236  -1.89146
O     1.73312   2.00908  -0.68416
C     0.60517   1.34020  -0.83164
O     0.02558   1.14275  -1.88015
C    -0.02274   0.94390   0.46783
O    -0.57921  -0.20626   0.63577
C    -0.48354  -1.38167   0.00594
C     0.72942  -1.69066  -0.74050
C     0.90054  -3.04735  -1.36011
O     1.63501  -0.84936  -0.79510
C    -1.53885  -2.31742   0.41314
C    -2.54470  -1.83120   1.42762
O    -1.61147  -3.44266  -0.07679
C    -0.35220   1.95608   1.50382
C    -1.10954   1.48761   2.71126
O     0.00443   3.11414   1.33241
H     2.61643   1.61585  -2.53313
H     3.27593   2.99145  -1.57158
H     1.70016   3.16054  -2.43078
H     0.11379  -3.22221  -2.10929
H     1.89008  -3.08742  -1.83376
H     0.80387  -3.84311  -0.60782
H    -3.10056  -0.96443   1.03727
H    -3.24271  -2.64818   1.64868
H    -2.04192  -1.50582   2.35113
H    -2.07405   1.05069   2.40879
H    -0.54668   0.69836   3.23387
H    -1.27644   2.33957   3.38161
