28
Generated by autodE on: 2022-06-23. E = -839.964623 Ha
C     2.26632   2.42256  -0.82108
O     1.41451   1.26450  -0.82988
C     1.79579   0.23624  -0.07566
O     2.85861   0.14150   0.49476
C     0.78551  -0.86265  -0.15966
O    -0.49173  -0.66772  -0.17422
C    -1.28197   0.34539   0.18261
C    -0.80988   1.29098   1.19178
C    -1.73529   2.35383   1.70829
O     0.32341   1.15184   1.66381
C    -2.66054   0.17365  -0.29671
C    -2.95801  -1.05043  -1.12608
O    -3.52304   1.01555  -0.05629
C     1.20119  -2.25680  -0.45944
C     0.11348  -3.28039  -0.61158
O     2.39191  -2.51906  -0.56196
H     2.36959   2.80332   0.20464
H     3.25653   2.17155  -1.22657
H     1.76986   3.16424  -1.45641
H    -1.21031   2.91721   2.49054
H    -2.02953   3.02621   0.88831
H    -2.66145   1.91596   2.10678
H    -2.35324  -1.04996  -2.04642
H    -2.70554  -1.96773  -0.57260
H    -4.02428  -1.04937  -1.38409
H     0.56917  -4.25235  -0.83658
H    -0.57538  -2.99020  -1.42008
H    -0.48211  -3.34689   0.31232
