51
Generated by autodE on: 2022-06-23. E = -1191.490392 Ha. Imaginary frequency = -201.1 cm-1
C     4.14056   2.64466  -0.96868
C     3.51216   1.45267  -0.85780
C     3.91859   0.25679  -1.67769
C     2.37917   1.32638   0.04614
C     1.67825   0.17876   0.26285
C     0.54263   0.12707   1.13289
C    -1.53089   1.28223  -0.33971
C    -2.12057   2.35151   0.46419
C    -3.39750   2.03601   1.20991
O    -1.59970   3.46517   0.55541
C    -0.56106   1.44603  -1.40515
O    -0.29246   0.56271  -2.21628
O     0.02525   2.64647  -1.44552
C     0.86240   2.91460  -2.57968
O    -2.14208   0.09351  -0.17130
C    -1.67177  -1.13585  -0.26348
C    -0.92843  -1.66677  -1.49858
C    -1.81196  -1.72748  -2.72073
O     0.16070  -2.19652  -1.45047
C    -2.58959  -2.14949   0.32519
C    -3.86836  -1.68581   0.96025
O    -2.28324  -3.33584   0.24334
C    -0.08848  -1.03459   1.58475
C    -1.06663  -0.88751   2.72330
C     0.55502  -2.39231   1.49420
H     4.98288   2.78465  -1.65157
H     3.82039   3.50775  -0.37771
H     4.75592   0.49813  -2.34696
H     3.07152  -0.09923  -2.28746
H     4.21997  -0.58556  -1.03355
H     2.06947   2.23579   0.57133
H     1.96949  -0.73611  -0.25439
H     0.22899   1.07391   1.58003
H    -4.13916   1.54652   0.56271
H    -3.19175   1.35080   2.04648
H    -3.80325   2.97322   1.61168
H     1.61949   2.13237  -2.71013
H     1.34670   3.87567  -2.37279
H     0.24768   2.98713  -3.48953
H    -2.51385  -0.88568  -2.76918
H    -1.18586  -1.76388  -3.62230
H    -2.39488  -2.66251  -2.65478
H    -4.53782  -1.30933   0.16861
H    -4.34382  -2.53565   1.46602
H    -3.70569  -0.85967   1.66267
H    -0.49552  -0.79766   3.66452
H    -1.68630   0.01337   2.62689
H    -1.71428  -1.76839   2.83215
H     1.33934  -2.45946   0.73540
H     1.00318  -2.61101   2.48037
H    -0.18940  -3.17817   1.30225
