25
Generated by autodE on: 2022-12-31. E = -738.863760 Ha
C    -3.80822   2.23667  -0.71215
N    -3.02357   1.06228  -0.39026
C    -1.69136   1.10531  -0.34058
O    -1.02698   2.13390  -0.55724
C    -0.96520  -0.17003  -0.00152
N     0.34017   0.03845   0.00597
N     1.32962  -0.76155   0.24191
C     2.53677  -0.07209   0.13070
O     2.66315   1.11244  -0.14408
O     3.54649  -0.90501   0.37180
C     4.86587  -0.34823   0.29543
C    -1.61277  -1.46943   0.28309
C    -0.77780  -2.66776   0.61566
O    -2.84189  -1.55288   0.24351
H    -3.56049   2.61887  -1.71523
H    -4.87116   1.96907  -0.68707
H    -3.62732   3.04681   0.01184
H    -3.45861   0.15885  -0.19630
H     0.56711   1.03808  -0.22471
H     5.55332  -1.17133   0.52153
H     4.98561   0.46016   1.03140
H     5.06018   0.04300  -0.71388
H    -1.44642  -3.51870   0.79762
H    -0.15356  -2.47045   1.50010
H    -0.08127  -2.89281  -0.20608
