63
Generated by autodE on: 2022-12-31. E = -1825.448409 Ha. Imaginary frequency = -260.1 cm-1
C    -3.37051   2.58984   6.21725
N    -2.37909   2.37475   5.18320
C    -2.46414   2.98429   4.00317
O    -3.37351   3.76491   3.68990
C    -1.40513   2.64935   2.97646
C    -1.37225   1.26162   2.42428
C    -0.49550   0.98145   1.23116
O    -2.06057   0.39066   2.93627
N    -0.88218   3.61584   2.21208
N    -0.52006   4.81926   2.57646
C    -1.39504   5.61187   3.35890
O    -1.26420   5.85336   4.53786
O    -2.30503   6.18173   2.56829
C    -3.28606   7.00129   3.22224
C     1.02524   4.15126   4.06489
C     0.67090   3.01477   4.41322
C     1.01925   1.82234   5.23997
O    -0.01763   0.86539   5.05218
C     0.10807  -0.40209   5.68551
O     2.25912   1.28525   4.84328
C     2.39008   0.91945   3.47570
C     1.15419   2.21530   6.71960
C     2.36121   3.07222   7.11812
C     2.44810   4.51258   6.58433
C     3.11169   4.67962   5.19798
C     2.17343   5.08997   4.02646
C     2.93869   4.88619   2.66962
O     4.13834   4.61350   2.65424
N     2.19879   5.02300   1.56226
C     2.76419   4.81780   0.24243
C     1.85023   6.59323   4.14777
F     1.31804   6.92270   5.33278
F     1.01163   7.05152   3.20132
F     2.98881   7.30545   4.01787
H    -4.37403   2.28253   5.88178
H    -3.41821   3.65293   6.50208
H    -3.09391   1.99886   7.09885
H    -1.58815   1.73880   5.33144
H     0.51360   1.40248   1.34554
H    -0.42754  -0.10477   1.09431
H    -0.94963   1.42154   0.32679
H    -0.33620   3.28420   1.41230
H    -2.80142   7.84495   3.73384
H    -3.85176   6.40040   3.94807
H    -3.94881   7.36684   2.42939
H    -0.19994  -0.36442   6.74283
H    -0.56281  -1.08207   5.14208
H     1.13858  -0.78088   5.61735
H     1.61033   0.20464   3.17143
H     2.35007   1.80519   2.81999
H     3.37481   0.44453   3.37260
H     0.21543   2.71374   7.00639
H     1.20962   1.27791   7.29350
H     2.33415   3.12682   8.21863
H     3.28809   2.53111   6.86808
H     3.04694   5.09152   7.30360
H     1.44670   4.96541   6.60247
H     3.57495   3.73394   4.89143
H     3.92710   5.41414   5.24415
H     1.19518   5.19178   1.66732
H     1.97813   4.97707  -0.50578
H     3.58812   5.52225   0.04890
H     3.15866   3.79483   0.13214
