18
Generated by autodE on: 2022-06-16. E = -551.613078 Ha
C    -2.48803  -0.76424   0.73291
C    -1.16387  -0.47925   0.09059
C    -0.65493  -1.42363  -1.03333
C     0.86902  -1.14949  -1.01772
C     0.92456  -0.09866   0.10737
C     2.21632   0.15972   0.74179
N     3.25272   0.34548   1.22299
O     0.38769   1.14639  -0.42318
C    -0.96493   0.93726  -0.45480
O    -1.74856   1.74114  -0.87739
O    -0.05008  -0.51159   1.03014
H    -2.50798  -1.79202   1.12165
H    -3.28109  -0.65654  -0.02118
H    -2.68328  -0.05777   1.55226
H    -1.13002  -1.19914  -1.99693
H    -0.88578  -2.45879  -0.75065
H     1.26661  -0.73623  -1.95225
H     1.45343  -2.03137  -0.72716
