12
Generated by autodE on: 2022-06-16. E = -472.896363 Ha
C    -2.66073   0.76662  -0.09485
C    -1.29644   0.21764   0.01153
O    -0.22165   0.97939  -0.33852
C     0.87205   0.28695  -0.16570
C     2.15012   0.80230  -0.43549
N     3.21537   1.22001  -0.65640
O     0.62197  -0.91272   0.28365
C    -0.83386  -1.04321   0.43311
O    -1.31634  -2.07846   0.84074
H    -2.78535   1.66536   0.53154
H    -3.37018   0.00048   0.24604
H    -2.90841   1.03709  -1.13482
