18
Generated by autodE on: 2022-06-16. E = -551.526355 Ha. Imaginary frequency = -266.3 cm-1
C    -2.51343  -0.72879   0.97906
C    -1.25275  -0.16305   0.46504
C    -0.42316  -1.58488  -1.49082
C     0.92271  -1.49229  -1.28622
C     0.87996   0.17227   0.36644
C     2.19845   0.25781   0.86617
N     3.30815   0.28388   1.21791
O     0.35269   1.13287  -0.40433
C    -1.04689   0.91713  -0.45208
O    -1.77239   1.58169  -1.16231
O    -0.07776  -0.42555   1.07348
H    -2.38975  -1.78842   1.24359
H    -3.28581  -0.63529   0.20304
H    -2.85782  -0.18263   1.87461
H    -0.92176  -1.00989  -2.27508
H    -1.01931  -2.35454  -0.99513
H     1.54747  -0.86301  -1.92506
H     1.44300  -2.20381  -0.63974
