33
Generated by autodE on: 2022-10-21. E = -3433.994446 Ha
C    -0.75629  -2.91055  -1.32186
O    -0.30141  -1.57279  -1.15091
C    -0.01066  -1.14856   0.14906
C     1.13370  -1.90211   0.87108
C     2.35250  -1.91613  -0.08092
C     2.90270  -0.46214   0.02033
C     1.86425   0.24896   0.91808
C     1.59474  -0.88627   1.93373
C     0.52824   0.34533   0.14509
Br    0.72508   1.20086  -1.60990
C    -0.65451   1.04507   0.87725
C    -0.40735   2.39616   1.37791
N    -0.17694   3.46166   1.76655
O    -1.80450   1.04403  -0.00165
C    -2.28170  -0.24233   0.05193
O    -3.23677  -0.61663  -0.56417
C    -1.33296  -0.97108   1.01166
C    -1.89645  -2.12618   1.78641
O    -1.01617   0.14781   1.88366
H    -0.62421  -3.15120  -2.38574
H    -0.17445  -3.62686  -0.72121
H    -1.82501  -3.00791  -1.07103
H     0.83568  -2.88943   1.24244
H     3.08940  -2.65111   0.27124
H     2.06992  -2.18623  -1.10634
H     3.02927   0.01979  -0.95555
H     3.87449  -0.43852   0.53287
H     2.19663   1.21385   1.32244
H     2.52945  -1.20612   2.41606
H     0.86016  -0.65653   2.70845
H    -2.21175  -2.92522   1.10411
H    -1.14328  -2.52761   2.47699
H    -2.77085  -1.79207   2.36304
