12
Generated by autodE on: 2022-10-21. E = -472.896368 Ha
C    -2.68598   0.66462   0.13897
C    -1.30385   0.16784   0.00907
O    -0.25402   0.96539   0.35517
C     0.86263   0.31839   0.15632
C     2.12350   0.87638   0.42182
N     3.17497   1.32916   0.63966
O     0.65234  -0.88341  -0.30739
C    -0.79935  -1.06764  -0.43848
O    -1.24769  -2.11442  -0.85570
H    -2.93503   0.90096   1.18695
H    -2.84700   1.57334  -0.46426
H    -3.37079  -0.11766  -0.21542
