33
Generated by autodE on: 2022-10-21. E = -3433.927857 Ha. Imaginary frequency = -200.1 cm-1
C    -0.68391  -2.91487  -1.39937
O    -0.24393  -1.55229  -1.36033
C     0.36019  -1.12606  -0.25600
C     1.19663  -1.98761   0.66978
C     2.59136  -2.02317  -0.05145
C     3.11890  -0.56896   0.12559
C     1.95825   0.13429   0.89328
C     1.50671  -1.01360   1.81987
C     0.77608   0.19535  -0.06876
Br    0.82872   1.40701  -1.55205
C    -1.08819   1.09713   1.01633
C    -0.62259   2.39011   1.36394
N    -0.16953   3.42891   1.62711
O    -1.93668   0.89788   0.00850
C    -2.43730  -0.44385   0.14376
O    -3.12583  -0.94045  -0.72868
C    -1.91355  -0.87380   1.38320
C    -2.16272  -2.09842   2.16766
O    -1.26412   0.18306   1.96155
H    -1.26488  -3.02176  -2.32286
H     0.17676  -3.59989  -1.42099
H    -1.32018  -3.14091  -0.53152
H     0.78269  -2.96859   0.92725
H     3.23661  -2.75619   0.45373
H     2.49778  -2.32285  -1.10468
H     3.33445  -0.07212  -0.83034
H     4.03495  -0.54572   0.73354
H     2.21873   1.08984   1.36523
H     2.33032  -1.37964   2.44948
H     0.65080  -0.77239   2.45457
H    -2.79032  -2.77626   1.57348
H    -1.22391  -2.61777   2.41934
H    -2.68797  -1.86894   3.11016
