20
Generated by autodE on: 2022-06-18. E = -457.715349 Ha
C    -3.12080  -0.19760   0.55373
N    -1.80052   0.28482   0.18202
C    -1.58882   1.65949   0.01642
C    -0.37428   2.18393  -0.21134
C     0.87905   1.34964  -0.30950
C     0.55889  -0.11783  -0.07660
C     1.61511  -1.14287  -0.09549
N     2.87411  -0.69558  -0.33111
O     1.39909  -2.35791   0.09053
C    -0.71633  -0.54062   0.15151
H    -3.14740  -1.29107   0.46466
H    -3.88464   0.22536  -0.11601
H    -3.37826   0.07774   1.59098
H    -2.48863   2.27374   0.08167
H    -0.29110   3.26567  -0.33889
H     1.35897   1.49817  -1.29892
H     1.63392   1.71047   0.41861
H     3.63326  -1.36766  -0.34718
H     3.08903   0.28192  -0.48044
H    -0.91691  -1.60019   0.31813
