37
Generated by autodE on: 2022-06-18. E = -967.341886 Ha. Imaginary frequency = -229.2 cm-1
C     4.59255   1.65097  -2.37577
N     3.43503   0.89213  -1.95527
C     2.40539   1.46839  -1.30032
O     2.35984   2.67360  -1.02603
N     1.40784   0.52784  -0.97893
N     0.45240   1.00099  -0.30249
C    -0.58788   0.88682   0.29796
C    -1.55269   1.77230   0.94502
C    -1.00768   3.15608   1.22103
O    -2.67922   1.43013   1.26654
C    -1.47314  -1.33366   0.41363
C    -2.61802  -1.12473  -0.51090
N    -3.85361  -1.16605   0.03823
O    -2.45878  -0.97411  -1.73428
C    -1.66463  -1.49266   1.91159
C    -0.31731  -1.53997   2.58447
C     0.78757  -1.91014   1.92122
N     0.75666  -2.21444   0.54635
C     2.00700  -2.53426  -0.12671
C    -0.32595  -1.85454  -0.16551
H     4.30856   2.47573  -3.04902
H     5.27932   0.98390  -2.91104
H     5.12700   2.08806  -1.51602
H     3.39513  -0.10891  -2.11452
H    -0.45634   3.11822   2.17619
H    -1.84553   3.85870   1.32469
H    -0.30489   3.48221   0.44297
H    -3.98707  -1.11650   1.04078
H    -4.64134  -0.91646  -0.55145
H    -2.26120  -0.66499   2.31994
H    -2.23724  -2.41711   2.13846
H    -0.24223  -1.31194   3.64952
H     1.76971  -1.99355   2.38791
H     2.59520  -3.22412   0.49217
H     2.58492  -1.61177  -0.30964
H     1.79289  -3.01191  -1.09068
H    -0.24839  -1.94799  -1.24914
