42
Generated by autodE on: 2022-07-02. E = -3572.856973 Ha
C    -3.58506  -0.36751  -2.74505
O    -2.32112  -0.02259  -2.14818
C    -1.61282   0.92090  -2.74938
O    -1.95123   1.49884  -3.76020
C    -0.31026   1.27361  -2.00925
C     0.76509   1.42859  -3.09955
O     1.32642   2.46297  -3.37443
O     0.98967   0.26400  -3.70178
C     1.96044   0.25402  -4.76282
C     0.06880   0.28688  -1.00471
C     0.19417  -0.19957   0.09743
C     0.11067  -0.31888   1.53701
Br    2.01311   0.10038   2.24176
C    -0.25108  -1.68716   2.06531
C    -0.30274  -2.78994   1.20178
C    -0.65871  -4.05349   1.68238
C    -0.96743  -4.22841   3.03320
C    -0.91572  -3.13177   3.90210
C    -0.55983  -1.87117   3.42324
C    -0.82272   0.81840   2.01949
C    -0.63040   2.20624   1.37906
C    -1.36637   2.52114   0.04483
C    -0.52329   2.61822  -1.24197
H    -4.24605   0.51021  -2.76338
H    -3.43110  -0.73831  -3.76795
H    -4.00901  -1.15404  -2.11119
H     1.64075   0.92259  -5.57472
H     2.00730  -0.78166  -5.11714
H     2.94107   0.57409  -4.38352
H    -0.06586  -2.65799   0.14404
H    -0.69526  -4.90214   0.99540
H    -1.24621  -5.21503   3.41049
H    -1.15241  -3.26015   4.96087
H    -0.50887  -1.02984   4.11602
H    -1.84921   0.46204   1.82714
H    -0.71992   0.90106   3.11040
H     0.44702   2.41486   1.27555
H    -0.99627   2.92690   2.12598
H    -1.83846   3.50799   0.16362
H    -2.20060   1.81538  -0.10228
H    -0.98931   3.31859  -1.95064
H     0.47472   3.01696  -1.00921
