74
Generated by autodE on: 2022-07-02. E = -4370.542891 Ha. Imaginary frequency = -233.7 cm-1
C   -12.01102  -9.71208   4.08789
N   -11.12533  -8.65424   3.64426
C   -11.03559  -7.48856   4.33106
O   -11.66672  -7.30898   5.37853
C   -10.13195  -6.41603   3.79780
C    -9.43115  -5.58890   4.83125
N    -9.60910  -6.61242   2.57941
C    -8.86350  -5.81147   1.79060
C    -7.70384  -4.97567   2.29139
O    -6.54590  -5.41046   2.15915
N    -7.96054  -3.76490   2.78907
C    -6.90892  -2.84546   3.16726
C    -8.80728  -6.38678   0.40932
O    -9.77525  -7.05908   0.00219
N    -7.71568  -6.16210  -0.33241
C    -7.64617  -6.52761  -1.73085
C   -10.76110  -4.28895   1.68272
C   -11.48761  -4.64281   2.63535
C   -12.75988  -4.37645   3.32014
Br  -12.28269  -3.67666   5.20132
C   -13.69016  -5.56828   3.43960
C   -13.50248  -6.68539   2.61495
C   -14.42067  -7.73949   2.62020
C   -15.53841  -7.69321   3.45542
C   -15.73419  -6.58039   4.28230
C   -14.82108  -5.52582   4.26964
C   -13.47244  -3.16639   2.66660
C   -14.07461  -3.41514   1.27445
C   -13.24416  -4.11303   0.19074
C   -11.97911  -3.45032  -0.35387
C   -10.76507  -3.24858   0.60358
C    -9.48423  -3.25053  -0.27114
O    -9.35926  -3.87158  -1.30111
O    -8.53686  -2.47295   0.24116
C    -7.26560  -2.43626  -0.42819
C   -10.82014  -1.84576   1.26227
O   -11.29835  -0.87004   0.72657
O   -10.26425  -1.82475   2.46910
C   -10.24334  -0.57738   3.17580
H   -11.60289 -10.25384   4.95889
H   -12.15573 -10.42589   3.26670
H   -12.98509  -9.29364   4.37263
H   -10.45922  -8.88148   2.91543
H    -8.38676  -5.93387   4.93389
H    -9.94535  -5.71940   5.78820
H    -9.41338  -4.52205   4.59728
H   -10.14773  -7.23761   1.96324
H    -8.91698  -3.42079   2.78232
H    -6.48335  -3.09722   4.15317
H    -7.32957  -1.83272   3.21276
H    -6.09505  -2.86783   2.42778
H    -6.92208  -5.71041   0.11273
H    -8.58323  -6.26303  -2.24048
H    -7.47372  -7.60872  -1.86601
H    -6.81907  -5.98005  -2.20018
H   -12.62890  -6.73484   1.96572
H   -14.25075  -8.60325   1.97375
H   -16.25328  -8.51929   3.46619
H   -16.60347  -6.53452   4.94262
H   -14.97797  -4.66716   4.92455
H   -12.76405  -2.32925   2.65160
H   -14.29168  -2.85572   3.33160
H   -14.40289  -2.43115   0.89791
H   -14.99193  -4.01207   1.40544
H   -13.90968  -4.23368  -0.68044
H   -13.00004  -5.13581   0.50686
H   -11.61614  -4.08651  -1.17025
H   -12.20638  -2.46685  -0.79112
H    -6.78506  -3.42193  -0.37040
H    -6.66857  -1.68907   0.10529
H    -7.39646  -2.14635  -1.47972
H    -9.82172  -0.80013   4.16189
H   -11.26377  -0.18270   3.27823
H    -9.61479   0.15012   2.64257
