24
Generated by autodE on: 2022-06-08. E = -1208.962400 Ha
C    -3.27079   2.44346  -0.03821
O    -2.37366   1.35919   0.27542
C    -1.49914   1.02541  -0.65756
O    -1.40875   1.51369  -1.75859
C    -0.64212  -0.14012  -0.20123
C     0.62729   0.05035   0.18909
C     1.17908   1.45415   0.17702
O     0.49966   2.43549   0.38546
O     2.46872   1.46923  -0.11473
C     3.11408   2.75660  -0.15615
C     1.59096  -1.04059   0.62843
F     0.96585  -2.14016   1.06433
F     2.35351  -0.60185   1.64201
F     2.40716  -1.40371  -0.36995
C    -1.36463  -1.47919  -0.30268
F    -1.69040  -1.96533   0.89892
F    -0.64046  -2.39843  -0.95048
F    -2.50883  -1.32161  -0.99223
H    -3.85975   2.20008  -0.93328
H    -2.69448   3.36380  -0.20745
H    -3.92300   2.55289   0.83479
H     4.16285   2.55540  -0.39899
H     2.65054   3.38362  -0.93022
H     3.03071   3.24922   0.82250
