23
Generated by autodE on: 2022-07-27. E = -741.405239 Ha
C    -2.16000  -2.10482   2.19884
O    -1.90323  -1.81142   0.81142
C    -1.53416  -0.57622   0.52888
O    -1.47188   0.35007   1.30759
C    -1.36827  -0.37219  -0.95153
C    -2.34608  -0.93215  -1.90097
O    -0.48999   0.42870  -1.41646
C     0.62849   0.93962  -0.79608
C     1.19945   2.02944  -1.46984
N     1.67171   2.95563  -2.00606
C     1.31941   0.14792   0.18282
O     0.93701  -0.95030   0.58440
O     2.46570   0.72251   0.58514
C     3.26550  -0.02277   1.51256
H    -1.25565  -1.90921   2.79179
H    -2.42316  -3.16722   2.23550
H    -2.99097  -1.48769   2.56776
H    -2.21209  -0.49472  -2.89810
H    -3.37243  -0.76840  -1.53320
H    -2.20102  -2.02647  -1.95222
H     2.69484  -0.24309   2.42649
H     4.12473   0.61578   1.74832
H     3.60888  -0.96465   1.06002
