29
Generated by autodE on: 2022-10-20. E = -870.371220 Ha
C    -2.83814   2.40847   1.09099
O    -1.71088   1.71349   0.53750
C    -1.94699   0.50834   0.02479
O    -3.01202  -0.06989   0.05360
N    -0.80825   0.02084  -0.62541
C     0.52077   0.51707  -0.32209
C     1.07169   1.74577  -0.87483
C     0.16491   2.59033  -1.73388
O     2.24275   2.08010  -0.67391
C     1.18207  -0.53416   0.27669
O     2.33405  -0.71159   0.86514
C     2.89505   0.33987   1.68996
N     0.37478  -1.67161   0.16257
C     0.44531  -2.79283   0.86795
N     0.51527  -3.79963   1.45219
N    -0.74124  -1.39096  -0.71481
C    -0.40845  -1.83086  -2.07469
H    -2.45623   3.38087   1.42172
H    -3.61645   2.54433   0.32669
H    -3.24987   1.85121   1.94423
H     0.78053   3.24947  -2.35990
H    -0.49937   1.97551  -2.35727
H    -0.47514   3.20875  -1.08489
H     3.71892  -0.13167   2.23675
H     3.24802   1.16023   1.05721
H     2.12439   0.69778   2.38725
H    -1.26379  -1.58385  -2.71629
H     0.50618  -1.35043  -2.46106
H    -0.27782  -2.92099  -2.05503
