16
Generated by autodE on: 2022-10-20. E = -525.632825 Ha
C     3.06311  -0.25723   0.21358
O     1.76750  -0.87211   0.34406
C     0.81605  -0.40139  -0.44398
O     0.94922   0.45355  -1.29351
N    -0.37065  -1.14272  -0.26918
N    -1.47484  -0.53668  -0.09720
C    -2.69909  -1.34050  -0.29699
N    -1.72779   0.69474   0.25990
C    -0.74463   1.47851   0.66814
N     0.01049   2.26076   1.10319
H     2.99104   0.81574   0.44162
H     3.44927  -0.39803  -0.80564
H     3.70699  -0.76233   0.94178
H    -2.39992  -2.35311  -0.57729
H    -3.27134  -1.32800   0.63808
H    -3.27856  -0.85972  -1.09531
