29
Generated by autodE on: 2022-10-20. E = -870.271384 Ha. Imaginary frequency = -392.9 cm-1
C    -2.52959   2.31957   1.18554
O    -2.05475   1.54962   0.07291
C    -1.79671   0.26500   0.30421
O    -2.10153  -0.33722   1.30927
N    -1.22347  -0.27808  -0.86654
C     0.77338   0.79766  -0.29200
C     0.60149   2.15406  -0.76209
C     0.32511   2.35249  -2.22729
O     0.67072   3.09600   0.02527
C     1.30928  -0.17226   0.30175
O     2.26914  -0.71156   0.99891
C     3.18789   0.23477   1.59615
N     0.07454  -1.70435   0.24614
C     0.68480  -2.88569   0.31883
N     1.24214  -3.89511   0.50406
N    -0.68669  -1.44636  -0.81171
C    -0.41025  -2.10051  -2.09669
H    -1.79543   2.29281   2.00362
H    -2.64235   3.34357   0.81250
H    -3.49584   1.93239   1.53840
H     0.48036   3.40567  -2.49802
H     0.95597   1.69446  -2.84325
H    -0.72425   2.07987  -2.42261
H     3.77099   0.72797   0.80493
H     3.84431  -0.35071   2.24987
H     2.62460   0.98201   2.17376
H    -1.19362  -1.80481  -2.79988
H     0.57933  -1.76557  -2.44658
H    -0.41297  -3.18806  -1.95466
