30
Generated by autodE on: 2022-05-28. E = -780.076619 Ha
C     2.83762   0.39929  -1.52702
C     2.18962  -0.54125  -0.56307
O     2.34259  -1.74789  -0.59951
C     1.26702   0.04093   0.52589
C     1.82502  -0.38571   1.88959
N     1.26846   1.52386   0.51199
N     0.14147   2.02296   0.52847
C    -0.95805   1.04024   0.46681
C    -1.89121   1.23429   1.64462
C    -1.62155   1.18940  -0.94897
C    -2.73693   0.16327  -1.04196
C    -2.12097  -1.01468  -1.19926
C    -0.63481  -0.69183  -1.20428
O    -0.60245   0.61304  -1.77795
C    -0.23309  -0.35343   0.30043
C    -0.68329  -1.39162   1.20638
N    -1.05428  -2.23762   1.90980
H     3.44620  -0.15910  -2.24959
H     2.05277   0.97371  -2.04458
H     3.45656   1.12857  -0.98181
H     2.82669   0.04538   2.02889
H     1.17277  -0.03450   2.70141
H     1.90343  -1.47962   1.92966
H    -2.71657   0.51032   1.60528
H    -1.35311   1.09807   2.59388
H    -2.31274   2.24999   1.62226
H    -1.83821   2.22522  -1.22916
H    -3.79823   0.37308  -0.91562
H    -2.54514  -2.01729  -1.23334
H     0.03726  -1.38608  -1.71463
