13
Generated by autodE on: 2022-05-28. E = -340.881193 Ha
C    -1.63094  -1.57085   0.26058
C    -0.97036  -0.23696   0.01961
O    -1.62019   0.78895  -0.19879
C     0.49040  -0.24198   0.06188
C     1.36525  -1.43954   0.32186
N     1.04771   0.92649  -0.15271
N     1.48496   1.95476  -0.34326
H    -1.35290  -1.96670   1.25066
H    -2.72067  -1.45288   0.20204
H    -1.29600  -2.30912  -0.48568
H     1.14665  -1.87984   1.30746
H     1.20464  -2.21806  -0.44059
H     2.42640  -1.15658   0.30226
