17
Generated by autodE on: 2022-05-28. E = -439.145386 Ha
C     1.51805  -1.90526   0.33042
C     0.50984  -0.82528   0.35037
C     0.56398   0.46155  -0.05909
C     1.64548   1.15395  -0.63551
N     2.53433   1.74277  -1.11070
C    -0.88290   1.01013   0.13369
C    -1.77187   0.28901  -0.90124
C    -1.81838  -0.98136  -0.48877
C    -0.96318  -1.00925   0.79547
O    -1.23577   0.29871   1.32859
H     1.65575  -2.32288   1.34215
H     1.15687  -2.73581  -0.30190
H     2.48753  -1.55927  -0.05413
H    -0.98732   2.09436   0.23944
H    -2.19250   0.74959  -1.79431
H    -2.28297  -1.85149  -0.95072
H    -1.15242  -1.80748   1.52100
