26
Generated by autodE on: 2022-05-28. E = -3150.915976 Ha
C    -4.37703  -0.50858   0.40480
O    -3.18728  -0.59464  -0.39716
C    -2.10607  -1.11573   0.18198
O    -2.08352  -1.53209   1.32031
C    -0.87517  -1.08565  -0.74548
C    -1.20355  -1.57748  -2.15076
O     0.12235  -1.92670  -0.17436
C     1.12882  -1.15992   0.50205
C     2.50314  -1.69902   0.14924
C     0.83595   0.24414   0.03320
Br    1.97610   1.67404   0.50540
C    -0.28414   0.32560  -0.69185
C    -0.93036   1.50154  -1.33397
H    -4.69722  -1.51151   0.72088
H    -5.13932  -0.04934  -0.23459
H    -4.19493   0.11567   1.29123
H    -1.98448  -0.96132  -2.61459
H    -1.55608  -2.61900  -2.10813
H    -0.29484  -1.53309  -2.76799
H     0.97168  -1.23057   1.59601
H     2.68984  -1.60166  -0.93137
H     3.28519  -1.15424   0.69848
H     2.56650  -2.76180   0.42755
H    -1.95223   1.64605  -0.94917
H    -0.35314   2.41841  -1.15377
H    -1.01682   1.35047  -2.42250
