19
Generated by autodE on: 2022-05-28. E = -460.471843 Ha
C     3.07431   1.46928  -0.09426
C     1.65842   1.06083  -0.02113
O     1.38418  -0.18409  -0.13968
C     0.25918  -0.94081  -0.13056
C     0.49955  -2.40395  -0.31823
C    -1.04840  -0.42302   0.04100
O    -2.06847  -1.12757   0.04799
O    -1.12050   0.93329   0.20267
C    -2.42581   1.48306   0.37849
H     3.22270   2.19234  -0.91698
H     3.73014   0.60127  -0.24864
H     3.37055   1.99293   0.83298
H     0.84164   1.76850   0.12867
H     0.14459  -2.99935   0.54192
H    -0.01336  -2.79946  -1.21305
H     1.57650  -2.59073  -0.43643
H    -2.28804   2.56578   0.49090
H    -3.06364   1.27694  -0.49455
H    -2.91067   1.07369   1.27784
