19
Generated by autodE on: 2022-07-26. E = -460.474832 Ha
C     3.55591  -0.12516   0.55270
C     2.08303  -0.08984   0.61507
O     1.43561  -0.01321  -0.48810
C     0.11024   0.03878  -0.78626
C    -0.19260   0.12325  -2.24688
C    -0.84074   0.00989   0.25595
O    -0.61457  -0.06145   1.47628
O    -2.12386   0.07064  -0.22761
C    -3.16533   0.04600   0.74387
H     3.91072  -0.08281  -0.48639
H     3.98294   0.72075   1.12165
H     3.93714  -1.04364   1.03486
H     1.51278  -0.12436   1.54499
H    -0.75038   1.03967  -2.50801
H    -0.79545  -0.73138  -2.60103
H     0.74857   0.12907  -2.81559
H    -3.09665   0.90644   1.42805
H    -4.10798   0.09585   0.18396
H    -3.13773  -0.88063   1.33855
