54
Generated by autodE on: 2022-10-22. E = -1427.385517 Ha
C    11.32124  -3.13999   0.72045
O     9.89778  -2.95472   0.77362
C     9.16515  -3.75370  -0.00886
O     9.61723  -4.60424  -0.75794
N     7.83187  -3.46877   0.12471
N     7.36053  -2.52883   1.08952
C     6.09549  -3.07883   1.61850
C     6.33763  -3.92758   2.81494
N     6.62628  -4.61807   3.70192
C     5.13797  -1.92442   1.92250
C     4.50261  -1.78546   3.16026
C     3.62028  -0.72498   3.38264
C     3.36545   0.20250   2.36840
C     4.00622   0.06943   1.13224
C     4.89335  -0.98620   0.91251
C     5.66493  -4.01712   0.47037
C     6.72112  -4.19994  -0.34742
C     6.87063  -4.99913  -1.65331
C     7.55227  -6.27614  -1.34817
N     7.95662  -7.33537  -1.10873
C     7.66036  -4.20725  -2.61938
N     8.16712  -3.56852  -3.44242
C     5.54986  -5.40978  -2.40211
C     4.64745  -4.28839  -2.90918
C     4.08804  -3.30062  -1.88334
C     3.38632  -3.87879  -0.65023
C     4.25589  -4.58592   0.41974
O     4.24571  -5.97414   0.14636
C     4.94892  -6.80576   1.06375
O     3.75773  -4.37760   1.72558
C     2.40250  -4.72142   1.96443
H    11.74176  -2.40239   1.41306
H    11.69144  -2.96120  -0.29872
H    11.58704  -4.15764   1.03952
H     8.07347  -2.41366   1.81114
H     4.68533  -2.51092   3.95471
H     3.12957  -0.62600   4.35353
H     2.67188   1.02859   2.54151
H     3.81730   0.79166   0.33476
H     5.40025  -1.08366  -0.04776
H     5.00223  -6.07328  -1.72956
H     5.88715  -6.00908  -3.25994
H     3.80803  -4.79831  -3.41086
H     5.16981  -3.71704  -3.69382
H     4.87929  -2.60767  -1.56347
H     3.34828  -2.67325  -2.40592
H     2.59346  -4.58190  -0.94910
H     2.90296  -3.03864  -0.13186
H     4.93969  -7.81667   0.63531
H     5.99490  -6.48483   1.19233
H     4.45977  -6.82268   2.05007
H     2.27058  -4.72620   3.05502
H     1.70947  -3.98369   1.52800
H     2.16230  -5.72123   1.56952
