24
Generated by autodE on: 2022-10-22. E = -701.464071 Ha
C     4.82341   1.19060   0.15498
O     3.39388   1.26994   0.11867
C     2.73550   0.10727   0.07595
O     3.28231  -0.99218   0.06685
N     1.37602   0.33529   0.04439
N     0.73453  -0.80868   0.00409
C    -0.57510  -1.00698  -0.03481
C    -0.93723  -2.39080  -0.06939
N    -1.22990  -3.51614  -0.09775
C    -1.62499   0.00979  -0.04440
C    -1.35462   1.39591  -0.00769
C    -2.40500   2.31319  -0.01899
C    -3.73229   1.87817  -0.06658
C    -4.01077   0.50688  -0.10330
C    -2.97230  -0.41827  -0.09222
H     5.20735   0.68754  -0.74483
H     5.18215   2.22598   0.18937
H     5.15923   0.64480   1.04906
H     1.34174  -1.65165   0.00401
H    -0.32479   1.73832   0.02937
H    -2.18029   3.38161   0.01006
H    -4.54883   2.60365  -0.07512
H    -5.04409   0.15598  -0.14088
H    -3.20681  -1.48359  -0.12129
