24
Generated by autodE on: 2022-10-26. E = -701.461754 Ha
C     3.13482  -0.57359  -2.15143
O     3.47784  -1.20181  -0.90775
C     2.60950  -1.20238   0.10973
O     2.91879  -1.74123   1.17069
N     1.41409  -0.57396  -0.14947
N     0.63841  -0.62259   0.90940
C    -0.58167  -0.12615   1.03564
C    -1.15475  -0.34596   2.32919
N    -1.61799  -0.52576   3.38049
C    -1.35210   0.59047   0.02184
C    -2.64769   1.04401   0.36373
C    -3.42621   1.73013  -0.56208
C    -2.93303   1.98036  -1.84800
C    -1.65429   1.53767  -2.19735
C    -0.86309   0.84860  -1.27886
H     2.25631  -1.05356  -2.60471
H     4.00861  -0.70825  -2.80089
H     2.93813   0.49811  -2.00877
H     1.05035  -1.10925   1.73001
H    -3.04657   0.85750   1.36230
H    -4.42388   2.07181  -0.27896
H    -3.54535   2.51926  -2.57445
H    -1.26364   1.72979  -3.19898
H     0.12991   0.50663  -1.55561
