54
Generated by autodE on: 2022-10-22. E = -1427.296922 Ha. Imaginary frequency = -235.1 cm-1
C    11.29857  -4.03122   0.89259
O     9.97180  -3.57545   1.20173
C     9.22706  -3.15211   0.17418
O     9.62292  -3.08416  -0.97498
N     7.92700  -2.79148   0.51476
N     7.61342  -2.96687   1.78583
C     6.34765  -2.81011   2.20913
C     6.12375  -3.41927   3.49356
N     5.97939  -3.90661   4.53803
C     5.39573  -1.77531   1.75696
C     4.19234  -1.61349   2.47262
C     3.25005  -0.66821   2.07233
C     3.49372   0.14045   0.95839
C     4.69254  -0.00234   0.25257
C     5.63623  -0.95276   0.63810
C     5.61490  -4.34591   0.54194
C     6.48127  -4.16522  -0.32879
C     6.80257  -4.36316  -1.76737
C     7.97710  -5.24725  -1.92078
N     8.83422  -6.02030  -2.02348
C     7.03099  -3.07097  -2.44555
N     7.10511  -2.05310  -2.99382
C     5.57191  -5.10282  -2.42134
C     4.29197  -4.26995  -2.57552
C     3.78082  -3.39290  -1.42138
C     3.25414  -4.03838  -0.13310
C     4.23414  -4.86784   0.73251
O     4.13595  -6.20524   0.26973
C     5.02986  -7.13702   0.86494
O     3.93124  -4.80961   2.10997
C     2.60723  -5.14858   2.49141
H    11.73979  -4.34069   1.84667
H    11.88587  -3.21689   0.44562
H    11.25165  -4.88093   0.19657
H     8.20906  -3.59830   2.33677
H     3.98369  -2.23826   3.34140
H     2.32024  -0.56490   2.63551
H     2.75331   0.87826   0.64156
H     4.89343   0.62384  -0.61942
H     6.55034  -1.07438   0.06340
H     5.40112  -5.98525  -1.79321
H     5.89042  -5.45116  -3.41479
H     3.50308  -4.98269  -2.86905
H     4.42950  -3.59972  -3.43949
H     4.53526  -2.63668  -1.16315
H     2.93582  -2.81630  -1.83185
H     2.40336  -4.69962  -0.35888
H     2.88114  -3.22371   0.50356
H     4.71530  -8.13519   0.53135
H     6.06931  -6.96127   0.53907
H     4.98518  -7.09160   1.96447
H     2.61571  -5.25436   3.58514
H     1.88634  -4.35989   2.21918
H     2.28603  -6.10253   2.04324
