52
Generated by autodE on: 2022-06-02. E = -1297.094469 Ha
C    -2.47612   2.60163   2.54122
N    -2.05967   1.93678   1.32374
C    -0.84238   2.07416   0.79860
O     0.04575   2.79089   1.28596
C    -0.58005   1.27998  -0.49647
C    -0.44786   2.22950  -1.70475
O    -0.89058   1.89122  -2.80717
N     0.21654   3.36810  -1.48719
C     0.51558   4.29650  -2.56018
N    -1.65037   0.32128  -0.76565
N    -1.27214  -0.87679  -0.11719
C    -2.18445  -1.52700   0.69983
C    -1.78119  -2.61676   1.50545
C    -2.70438  -3.27033   2.32278
C    -4.04598  -2.87636   2.35989
C    -4.45355  -1.81541   1.54399
C    -3.54721  -1.15240   0.71654
C     0.16938  -0.97569   0.05065
C     0.83244  -1.84847  -1.06456
O     0.75171  -0.96244  -2.18678
C     1.52248   0.09590  -1.60228
C     2.76541  -0.65079  -1.11671
C     4.03289   0.05774  -0.92080
C     5.27947  -0.70042  -0.55048
O     4.05301   1.28292  -1.05848
C     2.32606  -1.88595  -0.76584
C     2.94511  -3.05501  -0.09683
C     0.71342   0.43587  -0.31454
H    -2.81193   3.63399   2.34811
H    -1.63996   2.64060   3.25314
H    -3.30533   2.04072   2.99089
H    -2.70110   1.32652   0.82226
H     0.55047   3.54275  -0.54006
H    -0.40337   4.60401  -3.08195
H     1.19389   3.84480  -3.30203
H     0.99720   5.18529  -2.13537
H    -1.66216   0.17137  -1.77744
H    -0.74872  -2.96543   1.48555
H    -2.36305  -4.10713   2.93790
H    -4.76174  -3.39374   3.00203
H    -5.49953  -1.49740   1.54183
H    -3.88784  -0.34692   0.06701
H     0.43218  -1.30677   1.06189
H     0.33306  -2.80458  -1.25537
H     1.69019   0.91222  -2.30971
H     5.20208  -1.04750   0.49311
H     6.14939  -0.03647  -0.63984
H     5.41196  -1.58943  -1.18439
H     2.38566  -3.28124   0.82793
H     2.84625  -3.94700  -0.73911
H     4.00096  -2.91325   0.15574
H     1.35873   0.88579   0.44506
