21
Generated by autodE on: 2022-06-02. E = -499.581899 Ha
C    -2.71828  -0.36743  -0.85671
C    -1.69985   0.67183  -0.45923
O    -1.92984   1.87474  -0.60113
C    -0.43938   0.17114   0.09199
C     0.72686   0.82705   0.30685
C     1.14089   2.23260   0.10487
C     1.71618  -0.27954   0.74576
C     1.99280  -1.14415  -0.50360
C     0.84935  -1.80191  -0.71907
C    -0.10464  -1.31511   0.39426
O     0.82735  -1.14004   1.47773
H    -2.26836  -1.10696  -1.53949
H    -3.05480  -0.92152   0.03532
H    -3.58020   0.11292  -1.33774
H     2.00675   2.26578  -0.58052
H     1.49020   2.66558   1.05866
H     0.32807   2.84883  -0.29465
H     2.57609   0.04492   1.34225
H     2.91574  -1.13360  -1.08211
H     0.57869  -2.48571  -1.52298
H    -0.93643  -1.97042   0.67015
