31
Generated by autodE on: 2022-07-27. E = -797.435797 Ha
C     0.77540   1.88702   3.38330
N     0.53041   1.32073   2.07449
C     0.71056   1.99856   0.92494
O     1.10563   3.18482   0.88674
C     0.40823   1.24669  -0.30231
N    -0.01228  -0.01566  -0.28305
N    -0.21499  -0.76693   0.73250
C    -0.66397  -2.06524   0.49222
C    -0.85796  -2.85905   1.64105
C    -1.30413  -4.17395   1.52888
C    -1.56641  -4.72424   0.26933
C    -1.37705  -3.94151  -0.87625
C    -0.93138  -2.62448  -0.77669
C     0.51194   1.75726  -1.70184
O     0.21001   0.98949  -2.64389
N     0.92842   3.01816  -1.87393
C     1.05762   3.64604  -3.17007
H     1.14273   2.91312   3.27314
H    -0.14811   1.90403   3.98409
H     1.52781   1.29677   3.93000
H     0.20797   0.35481   1.98778
H    -0.16752  -0.34423  -1.26075
H    -0.64997  -2.41924   2.61832
H    -1.44824  -4.77332   2.43080
H    -1.91629  -5.75478   0.17894
H    -1.57977  -4.36160  -1.86420
H    -0.79895  -2.05143  -1.69693
H     1.12601   3.53078  -1.00803
H     0.96081   2.88771  -3.95631
H     0.27971   4.41228  -3.32549
H     2.04009   4.13310  -3.26425
