31
Generated by autodE on: 2022-06-02. E = -797.439889 Ha
C    -3.58319   3.26028   0.62376
N    -3.02628   1.92632   0.56181
C    -1.73970   1.71412   0.26143
O    -0.93426   2.63587   0.01121
C    -1.26623   0.30623   0.23220
N     0.03774   0.24520  -0.06597
N     0.78902  -0.78874  -0.20962
C     2.14589  -0.56091  -0.44631
C     2.81043   0.66716  -0.23804
C     4.17346   0.77561  -0.51162
C     4.89959  -0.32546  -0.98046
C     4.24841  -1.55001  -1.16907
C     2.88662  -1.67036  -0.90126
C    -2.11082  -0.87155   0.50129
O    -3.32126  -0.74848   0.79544
N    -1.52400  -2.07862   0.41439
C    -2.26859  -3.29458   0.66277
H    -3.09446   3.86637   1.40409
H    -4.65303   3.18777   0.85436
H    -3.46310   3.78980  -0.33502
H    -3.58277   1.08828   0.75281
H     0.41000   1.20979  -0.20001
H     2.28382   1.53690   0.16139
H     4.67690   1.73049  -0.34307
H     5.96772  -0.23123  -1.18752
H     4.80610  -2.41827  -1.52772
H     2.36788  -2.61966  -1.04840
H    -0.53231  -2.10154   0.16315
H    -2.68484  -3.30995   1.68296
H    -3.10894  -3.40267  -0.04193
H    -1.59513  -4.15202   0.54323
