52
Generated by autodE on: 2022-06-02. E = -1297.018231 Ha. Imaginary frequency = -320.3 cm-1
C    -1.30334   2.68104   3.45234
N    -1.47156   1.98771   2.19198
C    -1.06167   2.53118   1.03719
O    -0.55567   3.67171   0.99036
C    -1.20949   1.70005  -0.19871
C    -1.14308   2.30082  -1.57223
O    -1.52791   1.62998  -2.54778
N    -0.61323   3.52268  -1.68585
C    -0.44375   4.16055  -2.97397
N    -1.92620   0.54735  -0.20800
N    -1.79397  -0.30888   0.78470
C    -2.38247  -1.56645   0.61015
C    -2.11657  -2.52145   1.61287
C    -2.63015  -3.81168   1.51522
C    -3.43053  -4.17418   0.42394
C    -3.71100  -3.22674  -0.56480
C    -3.19528  -1.93123  -0.48161
C     0.43092  -0.45322   0.73599
C     0.59645  -1.57113  -0.30464
O     0.19323  -0.88345  -1.49809
C     1.13803   0.19490  -1.36455
C     2.45417  -0.60196  -1.23503
C     3.72690  -0.04193  -1.68584
C     4.98470  -0.86823  -1.60956
O     3.75552   1.11164  -2.12341
C     2.11605  -1.72128  -0.54666
C     2.86497  -2.86607   0.01976
C     0.78211   0.70768   0.04709
H    -1.80010   3.66299   3.43406
H    -1.74858   2.07509   4.25101
H    -0.23817   2.84718   3.68537
H    -1.73457   0.99810   2.15929
H    -0.37551   3.98733  -0.80444
H     0.18146   3.54662  -3.64168
H    -1.41119   4.32384  -3.47626
H     0.04491   5.13148  -2.82744
H    -2.05273   0.20128  -1.17066
H    -1.48949  -2.23209   2.45828
H    -2.40819  -4.54057   2.29825
H    -3.83723  -5.18502   0.34980
H    -4.34555  -3.49357  -1.41337
H    -3.45435  -1.21046  -1.25881
H     0.51417  -0.62034   1.80747
H     0.03880  -2.50114  -0.15031
H     1.08000   0.89741  -2.19988
H     5.25844  -1.03630  -0.55530
H     5.80224  -0.33421  -2.11157
H     4.83946  -1.85556  -2.07280
H     2.68634  -2.90926   1.10906
H     2.46813  -3.81093  -0.39038
H     3.94420  -2.82495  -0.16019
H     1.26830   1.58061   0.48098
