45
Generated by autodE on: 2022-06-24. E = -1238.359638 Ha
C     1.74293   4.26164  -2.51747
N     1.02814   3.13666  -1.94367
C     1.59081   2.33153  -1.03812
O     2.74279   2.43891  -0.61395
C     0.71590   1.17755  -0.57507
O     0.76054   1.09195   0.87537
C    -0.38325   0.45235   1.23246
O    -0.63122   0.12970   2.36284
C    -1.12098   0.20651  -0.09287
C    -2.61663   0.11115  -0.12725
C    -3.40384   0.08321   1.03134
C    -4.79506  -0.00853   0.93077
C    -5.41037  -0.06445  -0.32228
C    -4.62817  -0.02675  -1.48157
C    -3.23896   0.05856  -1.38483
O    -0.65006   1.34707  -0.84415
C    -0.28211  -0.96862  -0.77460
C     1.03236  -0.22204  -1.14989
C     2.35515  -0.83228  -0.66984
C     2.20617  -1.70303   0.55090
C     3.33833  -2.03824   1.42678
N     4.54919  -1.53428   1.07780
O     3.22161  -2.74821   2.44636
C     1.01525  -2.30975   0.80208
N    -0.12204  -2.13144   0.07269
C    -1.34018  -2.82290   0.47448
H     2.75223   3.95280  -2.82448
H     1.19403   4.62170  -3.39580
H     1.84132   5.08824  -1.79519
H     0.04844   2.99644  -2.17222
H    -2.93188   0.12350   2.01173
H    -5.39956  -0.03339   1.84024
H    -6.49796  -0.13570  -0.39699
H    -5.10154  -0.06471  -2.46524
H    -2.63196   0.09042  -2.29176
H    -0.83405  -1.25483  -1.67890
H     1.06118  -0.09293  -2.23842
H     2.78260  -1.42404  -1.49811
H     3.05825  -0.00618  -0.49047
H     4.69518  -0.98377   0.24143
H     5.35010  -1.75567   1.65881
H     0.93666  -3.02332   1.62473
H    -1.85321  -2.31499   1.30761
H    -2.03111  -2.87457  -0.37840
H    -1.09444  -3.84682   0.78636
