20
Generated by autodE on: 2022-06-24. E = -457.715336 Ha
C    -2.99434   0.68460   0.81211
N    -1.81970   0.11641   0.17122
C    -1.95816  -1.01165  -0.64728
C    -0.90808  -1.64149  -1.19747
C     0.51958  -1.19995  -0.98936
C     0.57372  -0.00191  -0.05546
C     1.85667   0.60349   0.33649
N     2.96923   0.03578  -0.19366
O     1.95064   1.57798   1.11025
C    -0.56116   0.55866   0.44983
H    -3.78166   0.88049   0.06822
H    -3.40489   0.00742   1.58053
H    -2.72385   1.63415   1.29070
H    -2.98704  -1.33910  -0.80705
H    -1.09739  -2.51205  -1.82962
H     0.99143  -0.96340  -1.96561
H     1.12264  -2.04014  -0.58913
H     3.87416   0.42708   0.04354
H     2.93248  -0.74592  -0.83519
H    -0.49331   1.41929   1.11739
