33
Generated by autodE on: 2022-10-21. E = -3392.964037 Ha
C    -2.57558  -2.16014   0.74129
O    -1.44800  -1.30560   0.86634
C    -0.98008  -0.68774  -0.29789
C    -0.61569  -1.71788  -1.44074
C     0.19304  -2.83447  -0.80521
C     1.40266  -2.31436  -0.57484
C     1.32397  -0.88337  -1.07832
O     0.39071  -0.98157  -2.15974
C     0.45896  -0.05487  -0.06676
Br    1.18501  -0.18623   1.73781
C     0.29459   1.45424  -0.52249
C     0.16225   2.40353   0.61350
N     0.05710   3.22218   1.42653
C     1.46288   1.93433  -1.28450
N     2.37634   2.31843  -1.88417
N    -0.90985   1.50999  -1.34804
C    -1.86825   0.52059  -0.79222
C    -2.61690   1.13301   0.39969
C    -2.86270   0.17785  -1.89947
H    -3.49525  -1.60734   0.49128
H    -2.71144  -2.63815   1.72121
H    -2.42334  -2.94924  -0.01322
H    -1.43917  -2.00526  -2.09815
H    -0.19164  -3.81733  -0.53612
H     2.26201  -2.75796  -0.07519
H     2.25881  -0.40616  -1.38755
H    -0.64132   1.19757  -2.28273
H    -1.98545   1.25123   1.28904
H    -3.00504   2.11982   0.11075
H    -3.46684   0.50011   0.68692
H    -3.53348  -0.63365  -1.58717
H    -2.35415  -0.12760  -2.82560
H    -3.47645   1.06197  -2.12759
