17
Generated by autodE on: 2022-10-21. E = -2995.673358 Ha
C     2.54431  -0.20923  -1.23670
O     1.38271   0.36327  -1.84329
C     0.27528   0.49914  -1.11261
C    -0.12605   0.23034   0.14506
Br    0.68244  -0.62451   1.61559
C    -1.63769   0.57017   0.14458
C    -2.35374  -0.47165  -0.74814
C    -1.94707  -0.19237  -1.99004
C    -0.99929   1.01722  -1.82494
O    -1.63609   1.70849  -0.73763
H     3.32662  -0.20224  -2.00592
H     2.34976  -1.24415  -0.91832
H     2.87086   0.39142  -0.37450
H    -2.08192   0.79741   1.11992
H    -2.99239  -1.27666  -0.38593
H    -2.15513  -0.70381  -2.92900
H    -0.82120   1.65779  -2.69573
