16
Generated by autodE on: 2022-10-21. E = -397.240674 Ha
C    -2.88358  -1.04532  -0.01676
C    -1.67570  -0.18975  -0.15894
C    -1.82384   1.24655  -0.50710
N    -0.50066  -0.72463   0.03086
C     0.77864  -0.12674   0.05230
C     0.97883   1.19158   0.48569
N     1.17673   2.28400   0.86280
C     1.88211  -0.94619  -0.22975
N     2.80708  -1.62775  -0.46384
H    -3.52672  -0.63643   0.78127
H    -2.63731  -2.08967   0.22137
H    -3.47254  -1.00547  -0.94770
H    -1.05134   1.55388  -1.22933
H    -1.70986   1.88323   0.38645
H    -2.82093   1.42713  -0.92862
H    -0.49201  -1.73310   0.20707
