16
Generated by autodE on: 2022-10-26. E = -397.240689 Ha
C    -2.18514  -0.10844   0.59363
C    -1.42702  -0.76104  -0.50433
C    -2.10326  -1.74018  -1.39541
N    -0.16552  -0.49726  -0.70789
C     0.72756   0.30566   0.03541
C     0.61463   0.45738   1.42464
N     0.55569   0.58525   2.58867
C     1.84087   0.83047  -0.63834
N     2.77248   1.26935  -1.19905
H    -1.96047  -0.58209   1.56424
H    -3.26309  -0.20260   0.41025
H    -1.91114   0.95499   0.67701
H    -2.47282  -2.58729  -0.79236
H    -2.98824  -1.26950  -1.85395
H    -1.43687  -2.12270  -2.18106
H     0.25892  -0.94421  -1.52555
