33
Generated by autodE on: 2022-10-21. E = -3392.898181 Ha. Imaginary frequency = -378.8 cm-1
C    -2.66441  -2.21961   0.68671
O    -1.53080  -1.40028   0.95251
C    -0.80162  -0.94494  -0.10792
C    -0.56755  -1.81283  -1.37810
C     0.33924  -2.98419  -0.95399
C     1.53690  -2.43407  -0.72695
C     1.34901  -0.93152  -1.01406
O     0.36804  -0.97127  -2.06896
C     0.46723  -0.37429   0.11525
Br    1.19805  -0.19302   1.84615
C     0.17390   1.91091  -0.74145
C     0.07820   2.62693   0.48146
N     0.07674   3.21881   1.48648
C     1.37952   2.10801  -1.46109
N     2.39056   2.23359  -2.03078
N    -0.93173   1.49584  -1.46033
C    -1.97167   0.79670  -0.94061
C    -2.57203   1.22459   0.37010
C    -2.93225   0.28695  -1.97896
H    -3.44613  -1.67978   0.13253
H    -3.06409  -2.51625   1.66532
H    -2.38647  -3.12785   0.12799
H    -1.43867  -2.04703  -1.99649
H     0.01404  -4.01671  -0.83182
H     2.45475  -2.89242  -0.36092
H     2.23479  -0.35608  -1.29970
H    -0.70029   1.23697  -2.41832
H    -1.85521   1.24677   1.19700
H    -2.99833   2.23621   0.25315
H    -3.38844   0.54610   0.64381
H    -3.51309  -0.55895  -1.59313
H    -2.41314  -0.02620  -2.89644
H    -3.64931   1.08436  -2.24320
