10
Generated by autodE on: 2022-06-16. E = -301.437773 Ha
C    -1.98224  -0.34283   0.14781
C    -0.51354  -0.13761   0.04110
C     0.09470   1.14082  -0.00757
N     0.59034   2.19666  -0.04832
O     0.24750  -1.19456  -0.01620
N     1.55710  -1.29015  -0.11617
H    -2.38178   0.14685   1.05098
H    -2.19130  -1.42017   0.19848
H    -2.50316   0.08529  -0.72476
H     1.91736  -0.31664  -0.14265
