54
Generated by autodE on: 2022-06-03. E = -1319.872215 Ha
C     2.24198  -0.89958   3.11504
C     1.30314   0.11252   2.51269
O     0.68666   0.87932   3.23151
C     1.07574   0.11029   0.96238
C     2.40991   0.20005   0.23675
C     2.63024  -0.47029  -0.97298
C     3.83106  -0.29866  -1.66779
C     4.82253   0.54880  -1.16490
C     4.60525   1.22688   0.03897
C     3.40634   1.05284   0.73403
C     0.14385   1.29452   0.59994
C     0.31611   1.91202  -0.81831
O    -0.40336   1.00153  -1.65348
C    -1.66035   1.11801  -0.97703
C    -1.87172   2.62779  -0.92880
C    -3.19315   3.28794  -0.85268
C    -0.61757   3.12952  -0.84662
C    -0.22582   4.47124  -0.64786
N     0.11759   5.57374  -0.48524
C    -1.29097   0.70529   0.48052
C    -1.12701  -0.83707   0.70749
C    -1.55102  -1.14615   2.10595
N    -1.79064  -1.40552   3.21172
C    -1.96506  -1.67483  -0.26317
C    -1.43102  -2.04244  -1.50502
C    -2.21643  -2.73195  -2.43131
C    -3.54336  -3.05509  -2.12992
C    -4.08010  -2.68565  -0.89356
C    -3.29304  -2.00089   0.03672
N     0.30148  -1.07581   0.56685
C     0.77754  -2.41771   0.85315
H     1.63011  -1.69412   3.57340
H     2.80840  -0.41462   3.92330
H     2.92875  -1.35249   2.39281
H     1.85320  -1.12022  -1.37535
H     3.99006  -0.82892  -2.60983
H     5.76053   0.68211  -1.70894
H     5.37126   1.89538   0.43888
H     3.24457   1.59640   1.66878
H     0.22673   2.06750   1.36746
H     1.33916   2.06768  -1.16859
H    -2.44459   0.53450  -1.46637
H    -3.79847   3.03995  -1.74062
H    -3.74935   2.90602   0.02114
H    -3.10399   4.37973  -0.76700
H    -2.00669   1.11829   1.19907
H    -0.40285  -1.77388  -1.74484
H    -1.78831  -3.01637  -3.39534
H    -4.15629  -3.59416  -2.85601
H    -5.11544  -2.93249  -0.64765
H    -3.72235  -1.71643   0.99987
H     0.56767  -2.75281   1.88570
H     0.29923  -3.13171   0.16786
H     1.85995  -2.46996   0.68714
