37
Generated by autodE on: 2022-07-27. E = -880.641688 Ha
C    -0.21107  -1.11097   2.43704
C     0.80282  -0.08678   1.96028
O     1.49660   0.49218   2.80704
C     1.05229   0.11881   0.53313
C     2.30746   0.74318   0.08773
C     3.54429   0.40446   0.67183
C     4.72202   1.01934   0.24826
C     4.69170   1.98432  -0.76503
C     3.47003   2.33438  -1.34946
C     2.28958   1.72396  -0.92536
N     0.09805  -0.22457  -0.38340
C     0.48064  -0.84293  -1.66912
C    -1.20996   0.00251  -0.08671
C    -1.50283   1.10499   0.75842
N    -1.82216   2.02102   1.41055
C    -2.32300  -0.80664  -0.58706
C    -3.58932  -0.21333  -0.77930
C    -4.66269  -0.96999  -1.24324
C    -4.49914  -2.33301  -1.51693
C    -3.25363  -2.93588  -1.31160
C    -2.17523  -2.18565  -0.84521
H    -0.60335  -1.76994   1.65339
H    -1.05378  -0.60379   2.93264
H     0.29764  -1.71849   3.20117
H     3.57992  -0.35370   1.45494
H     5.67273   0.73926   0.70812
H     5.61615   2.46390  -1.09500
H     3.43418   3.09495  -2.13305
H     1.33739   2.01857  -1.37240
H     0.70224  -1.90713  -1.51680
H     1.38164  -0.35051  -2.04536
H    -0.32976  -0.72126  -2.39440
H    -3.72448   0.85004  -0.57122
H    -5.63350  -0.49287  -1.39453
H    -5.34246  -2.92511  -1.87921
H    -3.12301  -4.00323  -1.50337
H    -1.22174  -2.67860  -0.65562
