37
Generated by autodE on: 2022-06-03. E = -880.641805 Ha
C    -2.81683  -1.93332   1.87185
C    -1.34399  -2.09662   1.56585
O    -0.67350  -2.90127   2.22921
C    -0.74909  -1.30730   0.48996
C    -1.37032  -0.06205   0.00614
C    -1.91802   0.87571   0.90031
C    -2.52438   2.04303   0.43103
C    -2.58323   2.30179  -0.94010
C    -2.03294   1.38063  -1.84144
C    -1.42920   0.21597  -1.37477
N     0.44779  -1.71428  -0.03907
C     0.76140  -3.15878  -0.12730
C     1.36098  -0.86136  -0.57545
C     2.29018  -1.36820  -1.51716
N     3.09073  -1.72215  -2.29193
C     1.47605   0.56158  -0.23172
C     1.89806   1.48729  -1.20615
C     2.06664   2.83309  -0.88134
C     1.82455   3.27801   0.42201
C     1.41502   2.36376   1.40001
C     1.23313   1.02105   1.07904
H    -3.21071  -2.92211   2.14979
H    -2.94701  -1.27341   2.74483
H    -3.39591  -1.51949   1.03728
H    -1.85109   0.69920   1.97460
H    -2.94061   2.75907   1.14341
H    -3.05123   3.21754  -1.30851
H    -2.07721   1.57313  -2.91593
H    -0.99854  -0.49062  -2.08730
H     1.53915  -3.42122   0.59970
H     1.12576  -3.36437  -1.14152
H    -0.14057  -3.74612   0.04739
H     2.08579   1.14741  -2.22659
H     2.38469   3.53837  -1.65240
H     1.95381   4.33241   0.67628
H     1.22992   2.70134   2.42221
H     0.91116   0.32004   1.85029
