23
Generated by autodE on: 2022-06-23. E = -351.521383 Ha
C    -3.60996  -1.07745   0.32952
C    -2.57267  -0.25419   0.06106
C    -2.79666   1.15641  -0.42104
C    -1.20092  -0.72693   0.23713
C    -0.07867  -0.00201   0.00076
C     1.26113  -0.51926   0.19051
C     2.42873   0.13843  -0.02390
C     3.74838  -0.53743   0.22042
C     2.52763   1.55760  -0.50714
H    -4.64595  -0.74978   0.20613
H    -3.44405  -2.10106   0.67941
H    -2.34754   1.88868   0.27040
H    -3.86884   1.38032  -0.51238
H    -2.32342   1.32068  -1.40340
H    -1.09178  -1.75942   0.59039
H    -0.18061   1.02803  -0.35132
H     1.32247  -1.55519   0.54542
H     3.62740  -1.57233   0.57276
H     4.35799  -0.55092  -0.70100
H     4.34050   0.01942   0.96890
H     3.08199   2.17183   0.22443
H     1.55468   2.03338  -0.68489
H     3.10866   1.60188  -1.44524
