52
Generated by autodE on: 2022-06-23. E = -1192.470772 Ha. Imaginary frequency = -294.3 cm-1
C    -4.27148  -2.12472   0.76412
C    -3.60657  -1.18683   0.05310
C    -4.00017  -0.85388  -1.36285
C    -2.47410  -0.48280   0.64621
C    -1.70894   0.44341   0.01260
C    -0.62083   1.15880   0.63198
C     1.02093  -0.73872  -0.26482
C     1.42991  -1.28776   1.06340
O     0.66564  -1.61441   1.95069
O     2.74463  -1.52174   1.08677
C     3.28613  -2.02505   2.31696
C     0.21441  -1.55584  -1.15301
C    -0.53251  -2.65100  -0.66612
C    -1.34190  -3.39543  -1.52453
C    -1.42599  -3.07037  -2.87988
C    -0.69373  -1.98079  -3.37417
C     0.10915  -1.22708  -2.52542
O     1.72593   0.21078  -0.85693
C     2.21422   1.35650  -0.39466
C     2.68937   1.59756   0.95112
O     2.40371   0.98302   1.97214
O     3.46159   2.70756   0.96753
C     3.88323   3.17280   2.25318
C    -0.01514   2.28998   0.08585
C     0.41941   3.40398   1.00336
C    -0.28791   2.69202  -1.34155
H    -5.11642  -2.67217   0.33744
H    -3.98050  -2.36790   1.79075
H    -4.28042   0.20869  -1.45629
H    -3.16120  -1.02275  -2.05591
H    -4.85008  -1.46673  -1.69481
H    -2.23070  -0.74264   1.68238
H    -1.93154   0.68202  -1.02962
H    -0.45496   0.96524   1.69585
H     3.06696  -1.33076   3.13951
H     2.86489  -3.01468   2.54497
H     4.36840  -2.10038   2.16113
H    -0.48860  -2.91241   0.38958
H    -1.92014  -4.23059  -1.12357
H    -2.06313  -3.65314  -3.54862
H    -0.75753  -1.71461  -4.43180
H     0.66642  -0.37584  -2.91686
H     2.57911   1.99388  -1.19793
H     4.49855   4.06086   2.06637
H     4.47737   2.40454   2.76955
H     3.01711   3.44062   2.87633
H     0.68352   3.03455   2.00386
H     1.25958   3.98405   0.59703
H    -0.42778   4.10398   1.12493
H     0.45154   3.42658  -1.69178
H    -0.27644   1.83331  -2.02739
H    -1.28344   3.16638  -1.42021
