13
Generated by autodE on: 2022-10-07. E = -245.298499 Ha
C     1.91586  -0.48605  -0.08665
N     0.80923   0.34498   0.35615
C    -0.46599   0.12606   0.02690
N    -1.41735   0.96072   0.45664
N    -0.79574  -0.92217  -0.73027
H     2.83789  -0.09245   0.35543
H     2.02089  -0.47042  -1.18346
H     1.79181  -1.52953   0.24390
H     1.01145   1.16186   0.92364
H    -2.39189   0.79148   0.23352
H    -1.18066   1.75080   1.04642
H    -0.09273  -1.56478  -1.07465
H    -1.76497  -1.08702  -0.97947
