33
Generated by autodE on: 2022-10-13. E = -877.464865 Ha
C    -4.81485   0.05464  -1.85211
O    -3.73731   0.42042  -0.98425
C    -2.66338  -0.39729  -0.97598
O    -2.60847  -1.42096  -1.64854
C    -1.61334   0.11508  -0.11998
C    -1.73084   1.38544   0.47437
N    -1.83090   2.43835   0.97602
N    -0.43201  -0.61884   0.09221
C    -0.55199  -2.03497   0.48326
C     0.72544   0.01677   0.01831
C     0.78580   1.29237  -0.79293
C     0.14728   1.31764  -2.16034
O     1.44088   2.23169  -0.37404
C     1.94556  -0.42396   0.69426
C     3.19153  -0.25745   0.05386
C     4.36620  -0.65432   0.68807
C     4.31934  -1.19994   1.97577
C     3.09056  -1.34858   2.62806
C     1.90940  -0.96924   1.99402
H    -4.47580   0.00928  -2.89766
H    -5.23373  -0.92097  -1.56433
H    -5.57378   0.83760  -1.73710
H    -0.87202  -2.10576   1.53060
H    -1.31199  -2.48614  -0.16218
H     0.40709  -2.54081   0.33666
H    -0.32600   0.37035  -2.44324
H    -0.59175   2.13137  -2.20964
H     0.95136   1.55633  -2.87516
H     3.23473   0.16723  -0.95037
H     5.32385  -0.53451   0.17731
H     5.24264  -1.50252   2.47491
H     3.05247  -1.75650   3.64028
H     0.96032  -1.06669   2.52131
