27
Generated by autodE on: 2022-10-06. E = -964.613251 Ha. Imaginary frequency = -246.0 cm-1
C     3.34387   0.19816  -0.00027
N     2.02353  -0.23586   0.40755
C     1.44436  -1.28508  -0.20449
O     2.00916  -2.04730  -1.00117
C     0.00703  -1.45444   0.11898
C    -0.80728  -2.33685  -0.62808
N    -1.45365  -3.08456  -1.24789
O    -0.37356  -1.01164   1.30838
N    -1.65949  -0.76538   1.50318
C    -1.80512  -0.29066   2.85911
C    -1.60216   1.10248   0.07270
C    -0.85586   2.08152   0.95450
O    -1.45429   3.15696   1.19824
O     0.27526   1.74964   1.41808
C    -1.10549   0.52672  -1.06961
C     0.16347   0.88811  -1.82333
O     0.49568   0.08502  -2.73825
O     0.76417   1.95429  -1.52516
H     3.33675   0.58756  -1.03313
H     4.06301  -0.63215   0.04796
H     3.68129   0.99697   0.67284
H     1.38645   0.47756   0.81139
H    -2.70916   0.33353   2.89287
H    -1.95758  -1.14095   3.54958
H    -0.93217   0.29131   3.19249
H    -2.67877   1.05222   0.24821
H    -1.78944  -0.09496  -1.65522
