41
Generated by autodE on: 2022-06-18. E = -977.483690 Ha
C     4.37225  -0.84160   0.27605
O     2.98706  -0.47359   0.40492
C     2.22036  -0.65019  -0.66073
O     2.60183  -1.07466  -1.72830
C     0.76686  -0.32201  -0.37517
O     0.14552   0.04005  -1.67230
C    -0.96657   0.73219  -1.35077
O    -1.74105   1.14805  -2.17541
C    -0.97577   0.79059   0.19026
C    -1.77726   1.90115   0.85209
C    -3.07592   2.31860   0.23238
O    -1.35217   2.41507   1.87178
N     0.46993   0.79074   0.48474
C     1.17543   2.04118   0.18214
C    -1.38930  -0.68401   0.66621
C    -1.60154  -0.67535   2.18461
C    -2.67891  -1.19458   0.01667
C    -0.07930  -1.49728   0.21426
C     0.66492  -2.15916   1.38094
C    -0.33510  -2.57567  -0.84514
H     4.45662  -1.91052   0.03513
H     4.82926  -0.62997   1.24872
H     4.85054  -0.24411  -0.51228
H    -2.85305   2.92629  -0.65985
H    -3.66376   1.45876  -0.11522
H    -3.64599   2.91973   0.95239
H     0.83977   2.81574   0.88018
H     1.01312   2.40142  -0.85054
H     2.25102   1.89071   0.33451
H    -1.72983  -1.70278   2.55132
H    -0.76799  -0.21268   2.72442
H    -2.51952  -0.12330   2.43393
H    -3.54278  -0.61750   0.37565
H    -2.84415  -2.24129   0.30858
H    -2.67279  -1.14982  -1.07940
H     0.01099  -2.89170   1.87325
H     1.00730  -1.43860   2.13197
H     1.54257  -2.70679   1.00633
H    -0.86888  -2.20265  -1.72610
H    -0.92161  -3.39622  -0.40905
H     0.62372  -2.99436  -1.18573
