18
Generated by autodE on: 2022-06-18. E = -235.968069 Ha
C     1.40206  -0.85734  -1.08836
C     0.67080   0.00968  -0.09179
C     1.61779   0.90194   0.67415
C    -0.67078  -0.00985   0.09196
C    -1.40205   0.85729   1.08842
C    -1.61780  -0.90179  -0.67430
H     2.15451  -1.48196  -0.57415
H     0.75373  -1.52401  -1.66939
H     1.96648  -0.22981  -1.80141
H     2.37292   0.29449   1.20473
H     2.18357   1.54771  -0.02131
H     1.13074   1.55042   1.41214
H    -2.15241   1.48409   0.57378
H    -0.75341   1.52192   1.67143
H    -1.96890   0.22990   1.79964
H    -2.37246  -0.29402  -1.20519
H    -1.13071  -1.55042  -1.41213
H    -2.18415  -1.54734   0.02091
