23
Generated by autodE on: 2022-06-18. E = -741.491958 Ha
C    -4.41681   0.35257  -0.36712
O    -3.04172   0.46678   0.04077
C    -2.15415  -0.21962  -0.66693
O    -2.41359  -0.92806  -1.61826
C    -0.79215   0.00443  -0.12798
O    -0.61695   0.80376   0.92127
C     0.77555   0.85974   1.23309
O     1.15627   1.53937   2.16325
C     1.38564   0.01128   0.26347
C     2.79508  -0.30323   0.12445
C     3.72767   0.34900   1.11527
O     3.22243  -1.06148  -0.75034
N     0.36271  -0.48298  -0.54708
C     0.55893  -1.39224  -1.68200
H    -4.53631   0.71187  -1.39897
H    -4.74621  -0.69381  -0.29860
H    -4.98553   0.98064   0.32705
H     3.45670   0.07126   2.14583
H     3.65582   1.44610   1.05357
H     4.75465   0.02803   0.89835
H    -0.41236  -1.59650  -2.13486
H     1.02219  -2.31517  -1.31661
H     1.23375  -0.91446  -2.40051
