35
Generated by autodE on: 2022-05-29. E = -1172.333257 Ha
C     4.52780   0.74868   0.14771
O     3.21585   0.73386   0.73695
C     2.36395  -0.17440   0.28075
O     2.62626  -1.00371  -0.56009
C     0.98466  -0.05675   0.95920
C     1.12872   0.13073   2.46252
O     0.27392  -1.28217   0.75290
C    -0.62717  -1.24387  -0.32474
C    -0.06490  -1.88730  -1.53197
N     0.34454  -2.45635  -2.45442
C    -1.93205  -2.02855   0.03793
C    -2.17554  -2.29652   1.48351
O    -2.67264  -2.34379  -0.86692
C    -0.91942   0.26810  -0.61195
F    -0.82146   0.52067  -1.95508
C    -2.22743   0.87591  -0.01338
C    -2.29549   2.30351  -0.52983
C    -1.36292   2.97518   0.15646
C    -0.73048   1.95798   1.09110
O    -1.81283   1.04981   1.34796
C     0.16590   1.03765   0.21397
F     0.98125   1.77339  -0.61842
H     5.07209   1.55758   0.64741
H     5.03141  -0.21355   0.31612
H     4.45480   0.94466  -0.93149
H     1.71559  -0.70067   2.87818
H     1.64511   1.07238   2.68561
H     0.13889   0.13344   2.93544
H    -3.14802  -2.78880   1.60728
H    -2.13900  -1.35114   2.04630
H    -1.36667  -2.93163   1.87788
H    -3.12814   0.26081  -0.09540
H    -2.93307   2.64509  -1.34393
H    -1.04251   4.01051   0.04863
H    -0.27523   2.32555   2.01381
