22
Generated by autodE on: 2022-07-26. E = -666.147183 Ha
C     3.61560   1.84092   0.04967
O     2.34811   1.69283   0.71421
C     1.57282   0.69619   0.30359
O     1.84684  -0.08748  -0.58455
C     0.35251   0.58285   1.14413
C     0.30371   1.10877   2.52614
O    -0.66347  -0.08992   0.74681
C    -1.10287  -0.62509  -0.40827
C    -0.59344  -0.26995  -1.67136
N    -0.26545   0.03419  -2.75042
C    -2.28786  -1.45453  -0.29710
C    -2.85266  -1.68803   1.08153
O    -2.78841  -1.95324  -1.30997
H     3.46069   2.01795  -1.02412
H     4.09834   2.70644   0.51606
H     4.22452   0.93678   0.19184
H     1.20367   0.80882   3.08664
H     0.29786   2.21271   2.49978
H    -0.60038   0.75281   3.03575
H    -3.76403  -2.29298   0.99360
H    -3.08416  -0.73232   1.57713
H    -2.11983  -2.21327   1.71435
