22
Generated by autodE on: 2022-05-29. E = -666.154526 Ha
C     3.22124   1.90493   0.85113
O     2.03216   1.17042   0.51810
C     2.20410  -0.07920   0.09752
O     3.28104  -0.63111  -0.02491
C     0.92272  -0.76808  -0.21647
C     0.88510  -2.16041  -0.69400
O    -0.11503  -0.04066  -0.02721
C    -1.43548  -0.21323  -0.15234
C    -2.03744  -1.42161  -0.56369
N    -2.61295  -2.38294  -0.89241
C    -2.24726   0.94851   0.17125
C    -1.52447   2.19905   0.60454
O    -3.47585   0.88560   0.08454
H     2.88146   2.89855   1.16325
H     3.75767   1.40773   1.67203
H     3.87984   1.98213  -0.02574
H     0.38273  -2.21860  -1.67446
H     1.90689  -2.54413  -0.78315
H     0.31566  -2.79459   0.00671
H    -0.92453   2.00602   1.50749
H    -2.26356   2.98406   0.80832
H    -0.82770   2.53536  -0.17888
