13
Generated by autodE on: 2022-05-29. E = -506.057107 Ha
F     1.54753  -1.64013   0.30554
C     0.71732  -0.60219   0.27466
C     0.68133   0.46435  -0.52269
F     1.46441   0.82265  -1.53557
C    -0.62766   1.18929  -0.16020
C    -1.80607   0.29880  -0.63362
C    -1.77001  -0.76991   0.16626
C    -0.56984  -0.51592   1.11510
O    -0.66028   0.91743   1.25682
H    -0.66717   2.25949  -0.39128
H    -2.46305   0.52546  -1.47227
H    -2.38904  -1.66610   0.16754
H    -0.55491  -1.04074   2.07662
