35
Generated by autodE on: 2022-05-29. E = -1172.213779 Ha. Imaginary frequency = -174.9 cm-1
C     4.26287   0.99671   0.12568
O     3.09900   0.67376   0.90164
C     2.30282  -0.27458   0.41301
O     2.53257  -0.91756  -0.59241
C     1.10880  -0.45560   1.26952
C     1.09761  -0.00460   2.68548
O     0.18325  -1.30831   0.95837
C    -0.38435  -1.79303  -0.14757
C     0.22640  -2.00425  -1.40769
N     0.55233  -2.25718  -2.49885
C    -1.71611  -2.36764   0.06485
C    -2.28149  -2.32598   1.45972
O    -2.34013  -2.83855  -0.88658
C    -0.86282   0.78025  -0.92046
F    -0.74816   0.52462  -2.21595
C    -2.21635   0.94316  -0.22285
C    -2.62366   2.42440  -0.42467
C    -1.76245   3.12611   0.31887
C    -0.83647   2.07028   0.97401
O    -1.75997   0.98018   1.14180
C     0.02097   1.47157  -0.15060
F     1.14318   2.05092  -0.58709
H     3.96544   1.32999  -0.87886
H     4.76670   1.80702   0.66396
H     4.92379   0.12210   0.04383
H     1.43305   1.03853   2.75423
H     1.79933  -0.61116   3.28564
H     0.08863  -0.10365   3.10387
H    -3.26570  -2.81098   1.45684
H    -2.37651  -1.28467   1.80112
H    -1.61074  -2.83958   2.16581
H    -2.97217   0.17194  -0.40048
H    -3.42789   2.76574  -1.07474
H    -1.66917   4.20298   0.45198
H    -0.33089   2.34394   1.90454
