36
Generated by autodE on: 2022-06-01. E = -1119.507705 Ha
C     3.77036  -1.73074   0.89577
O     2.88588  -0.64461   0.55333
C     1.77244  -0.95339  -0.08706
O     1.44016  -2.06961  -0.41322
C     0.94631   0.29903  -0.45287
C     1.45080   1.51064   0.35641
C     2.51026   2.36239  -0.25827
O     0.95477   1.71931   1.44532
N     1.14015   0.43863  -1.92237
N     0.08371   0.12580  -2.51400
N    -0.91486  -0.25306  -1.70724
C    -2.27119  -0.20093  -2.23182
C    -0.58261   0.02785  -0.30425
C    -1.35013   1.30947   0.10619
O    -1.21301   2.35102  -0.49377
O    -2.20779   1.09667   1.08772
C    -3.00585   2.21848   1.51309
C    -0.87654  -1.10607   0.68475
O    -0.36895  -1.13619   1.78373
O    -1.73978  -1.99023   0.21955
C    -2.08006  -3.08340   1.09315
H     3.25026  -2.44014   1.55387
H     4.10569  -2.24201  -0.01693
H     4.61776  -1.27093   1.41507
H     2.03423   2.95024  -1.06201
H     2.92853   3.04243   0.49465
H     3.29572   1.75325  -0.72524
H    -2.65327   0.83232  -2.27385
H    -2.26458  -0.62330  -3.24435
H    -2.92258  -0.80792  -1.59391
H    -2.35126   3.02442   1.87242
H    -3.62101   2.57980   0.67756
H    -3.63810   1.84371   2.32500
H    -1.17678  -3.65829   1.34012
H    -2.54218  -2.70062   2.01365
H    -2.79021  -3.70221   0.53419
