29
Generated by autodE on: 2022-06-01. E = -915.289123 Ha
C    -4.05919  -0.45284   0.07913
O    -2.65434  -0.72703   0.22527
C    -1.86764  -0.33872  -0.77059
O    -2.24957   0.13840  -1.81680
C    -0.42049  -0.65302  -0.49912
C     0.13635  -1.92646  -1.09501
C    -0.77548  -2.73650  -1.96180
O     1.28553  -2.25183  -0.85076
C     0.36663   0.18119   0.20744
C     1.81638  -0.11081   0.50260
O     2.18638  -0.60333   1.54479
O     2.61175   0.31809  -0.46960
C     4.01960   0.07924  -0.29908
C    -0.17826   1.45121   0.78284
O    -1.31010   1.85115   0.60231
O     0.74010   2.08970   1.50016
C     0.34843   3.33360   2.10634
H    -4.53978  -0.86288   0.97418
H    -4.22239   0.63275   0.01942
H    -4.45224  -0.93837  -0.82497
H    -0.26126  -3.64195  -2.30564
H    -1.10439  -2.13300  -2.82242
H    -1.68136  -3.00606  -1.39405
H     4.21215  -1.00210  -0.24732
H     4.50682   0.51157  -1.18007
H     4.38309   0.56501   0.61736
H     0.04638   4.05208   1.33146
H     1.23173   3.69539   2.64363
H    -0.48530   3.16729   2.80287
