36
Generated by autodE on: 2022-06-01. E = -1119.453477 Ha. Imaginary frequency = -290.2 cm-1
C     4.00417  -1.54584   0.89857
O     3.06919  -0.46536   0.79022
C     1.81014  -0.78805   0.47962
O     1.46095  -1.95444   0.33494
C     0.89130   0.35060   0.33392
C     1.26353   1.77479   0.29658
C     2.67724   2.23980   0.52512
O     0.38508   2.61403   0.06519
N     1.45208   0.31328  -2.24681
N     0.32887   0.08762  -2.26582
N    -0.75791  -0.09295  -1.70928
C    -1.98751  -0.42100  -2.43122
C    -0.48697   0.03806   0.14868
C    -1.49078   1.11778   0.58771
O    -1.61740   1.38034   1.76321
O    -2.26601   1.58607  -0.37664
C    -3.22652   2.58320   0.00667
C    -0.95914  -1.31979   0.69187
O    -1.02452  -1.50441   1.88641
O    -1.36284  -2.17670  -0.22890
C    -1.78830  -3.46626   0.24167
H     4.96832  -1.08400   1.14121
H     4.07407  -2.09306  -0.05264
H     3.70395  -2.23975   1.69673
H     3.03060   1.93061   1.51915
H     2.69619   3.33414   0.44225
H     3.36143   1.79449  -0.21030
H    -1.85521  -1.35243  -2.99857
H    -2.26235   0.40570  -3.10080
H    -2.77194  -0.55771  -1.68338
H    -3.90544   2.18771   0.77497
H    -3.78128   2.82997  -0.90535
H    -2.70736   3.47255   0.39198
H    -0.95082  -3.97401   0.74108
H    -2.63008  -3.36168   0.94011
H    -2.09615  -4.02266  -0.65043
