26
Generated by autodE on: 2022-05-28. E = -962.661351 Ha
C    -4.02279   1.22220   1.32949
N    -2.95641   0.92087   0.39921
C    -2.43163  -0.29776   0.23365
O    -2.77002  -1.31651   0.84275
C    -1.34273  -0.38890  -0.83940
N    -1.02360   0.88042  -1.49886
N     0.21223   1.27948  -0.87662
C     1.03112   0.14095  -0.77663
F     1.48926  -0.33621  -2.01117
C     2.26578   0.29733   0.11671
O     3.26605  -0.36042  -0.04923
O     2.08280   1.19275   1.07211
C     3.17328   1.38339   1.99314
C     0.00134  -0.90323  -0.25798
F     0.02287  -0.90201   1.10354
F     0.30966  -2.15522  -0.65192
H    -4.23015   0.33033   1.93320
H    -3.73367   2.04668   1.99877
H    -4.94405   1.51258   0.79959
H    -2.59410   1.64334  -0.21992
H    -1.69536  -1.12006  -1.57827
H    -0.84453   0.67904  -2.48703
H     0.62685   2.10245  -1.31130
H     3.38459   0.44556   2.52603
H     2.84023   2.15645   2.69410
H     4.07145   1.71372   1.45295
