14
Generated by autodE on: 2022-05-28. E = -358.147262 Ha
C     2.27577   0.96464   1.64232
N     1.58528   0.62742   0.41708
C     0.32042   0.14384   0.37509
O    -0.36758  -0.05654   1.39875
C    -0.20493  -0.13542  -0.95493
N    -1.44526  -0.61018  -1.00405
N    -2.21936  -0.96107  -1.97003
H     1.61079   0.76128   2.48979
H     3.19293   0.36563   1.76344
H     2.55695   2.03007   1.66390
H     2.07104   0.76056  -0.46399
H     0.34387   0.01954  -1.88426
H    -1.85128  -0.70854  -0.05855
H    -1.68871  -0.81029  -2.84071
