61
Generated by autodE on: 2022-06-13. E = -1660.298753 Ha
C    -5.03993  -0.11543  -0.53841
N    -3.64794  -0.49904  -0.39670
C    -2.66180   0.20739  -0.96344
O    -2.87846   1.17340  -1.70682
C    -1.20764  -0.16916  -0.54678
C    -1.08253  -1.66665  -0.32702
C    -0.93515  -2.22188   0.94863
C    -0.85984  -3.60870   1.11212
C    -0.92877  -4.45314   0.00214
C    -1.08133  -3.90447  -1.27607
C    -1.16407  -2.52128  -1.43747
N    -0.85180   0.61729   0.64853
C    -0.55747   1.98360   0.23530
C     0.30544   2.62673   1.24767
N     0.89856   3.15184   2.09450
C    -1.84333   2.87047   0.24192
O    -2.79740   2.60337   0.93724
O    -1.72981   3.94164  -0.52117
C    -2.87203   4.81733  -0.58395
C     0.08217   1.84570  -1.17878
C     1.64598   1.84394  -1.33612
O     1.78621   0.94126  -2.44438
C     1.17766  -0.18978  -1.79811
C     1.94502  -0.25965  -0.47145
C     2.20677  -1.50617   0.24783
C     2.26474  -1.54848   1.65519
C     2.50922  -2.74839   2.31912
C     2.70217  -3.92940   1.59415
C     2.63403  -3.90448   0.19804
C     2.37851  -2.70717  -0.46986
C     2.28598   1.03568  -0.21505
C     3.21176   1.59879   0.77320
O     3.74859   1.00768   1.69506
O     3.45675   2.89732   0.51702
C     4.29599   3.58637   1.44759
C    -0.25588   0.39660  -1.61053
H    -5.66713  -0.85739  -0.02993
H    -5.32958  -0.07068  -1.59922
H    -5.22273   0.87522  -0.09180
H    -3.40544  -1.28510   0.19812
H    -0.86100  -1.56997   1.81844
H    -0.73255  -4.02706   2.11287
H    -0.85999  -5.53578   0.13052
H    -1.13558  -4.55697  -2.15056
H    -1.29581  -2.09920  -2.43656
H    -1.57308   0.59906   1.37027
H    -3.73214   4.27041  -0.99489
H    -2.58405   5.63831  -1.24934
H    -3.11364   5.19781   0.41807
H    -0.34018   2.59501  -1.85128
H     2.08666   2.81948  -1.55333
H     1.22202  -1.08081  -2.42922
H     2.09554  -0.63621   2.22280
H     2.54020  -2.76517   3.41097
H     2.89303  -4.86942   2.11708
H     2.77164  -4.82415  -0.37468
H     2.32475  -2.70320  -1.55908
H     3.85095   3.56253   2.45310
H     5.29753   3.13344   1.48124
H     4.36141   4.62018   1.08859
H    -0.73118   0.37631  -2.59508
