32
Generated by autodE on: 2022-06-13. E = -893.561328 Ha
C    -3.44388   3.25711  -0.23489
N    -2.70369   2.01771  -0.09856
C    -1.36475   1.99258  -0.14639
O    -0.66776   3.00564  -0.31460
C    -0.70483   0.65485  -0.00925
N     0.59512   0.73534  -0.15535
C     1.63955  -0.13794  -0.06744
C     1.50840  -1.47491   0.34835
N     1.44864  -2.58760   0.70017
C     2.93390   0.45060  -0.36949
O     3.08266   1.62454  -0.69094
O     3.94268  -0.42534  -0.25776
C     5.25836   0.07009  -0.53614
C    -1.42983  -0.60916   0.19577
C    -2.23444  -0.79423   1.33439
C    -2.93041  -1.99099   1.51130
C    -2.83811  -3.00542   0.55315
C    -2.04676  -2.82244  -0.58559
C    -1.34318  -1.63231  -0.76586
H    -3.09204   4.00278   0.49395
H    -3.32542   3.68470  -1.24364
H    -4.50672   3.05605  -0.05660
H    -3.21262   1.14603   0.00915
H     0.90494   1.70348  -0.36572
H     5.32381   0.43548  -1.57144
H     5.93641  -0.77924  -0.39293
H     5.52047   0.88393   0.15558
H    -2.29842  -0.00527   2.08629
H    -3.54406  -2.13284   2.40353
H    -3.38507  -3.94049   0.69364
H    -1.97640  -3.61154  -1.33737
H    -0.72574  -1.48795  -1.65468
