61
Generated by autodE on: 2022-06-13. E = -1660.212048 Ha. Imaginary frequency = -315.2 cm-1
C    -5.10098   0.21354  -0.37284
N    -3.72739  -0.10961  -0.03807
C    -2.76621  -0.10913  -0.97772
O    -2.99900  -0.07138  -2.18474
C    -1.36877  -0.39292  -0.39378
C    -1.14625  -1.87129  -0.31332
C    -0.95976  -2.51842   0.92079
C    -0.78222  -3.90054   0.97480
C    -0.79725  -4.66054  -0.19785
C    -0.99944  -4.02726  -1.42714
C    -1.18095  -2.64522  -1.48653
N    -0.91477   0.33235   0.65801
C    -0.77563   1.70070   0.76403
C     0.09550   2.12915   1.79846
N     0.80229   2.44381   2.67101
C    -1.66491   2.68901   0.16998
O    -2.60258   2.47172  -0.58233
O    -1.30375   3.93537   0.53916
C    -2.05686   5.01440  -0.02483
C     0.17340   1.70936  -1.75809
C     1.70692   1.76009  -1.76232
O     1.99611   0.73067  -2.74002
C     1.25827  -0.30115  -2.05100
C     1.93263  -0.24826  -0.65866
C     2.14983  -1.41427   0.19731
C     2.16224  -1.30680   1.60364
C     2.38023  -2.42923   2.39929
C     2.59566  -3.68014   1.81075
C     2.57244  -3.80290   0.41876
C     2.34123  -2.68453  -0.38148
C     2.22380   1.07044  -0.49437
C     2.97868   1.78400   0.53912
O     3.68166   1.28618   1.40218
O     2.84567   3.11435   0.39180
C     3.52421   3.93765   1.34611
C    -0.14085   0.37772  -1.97303
H    -5.73800   0.01087   0.49698
H    -5.44243  -0.40257  -1.21607
H    -5.20436   1.27505  -0.65415
H    -3.44040  -0.03243   0.93276
H    -0.97073  -1.95112   1.85272
H    -0.63243  -4.38421   1.94196
H    -0.65313  -5.74220  -0.15312
H    -1.01584  -4.61136  -2.34986
H    -1.34495  -2.16419  -2.45038
H    -0.24751  -0.16690   1.24686
H    -1.96484   5.02091  -1.12096
H    -1.62637   5.93166   0.39371
H    -3.11849   4.93533   0.25117
H    -0.45810   2.57130  -1.95457
H     2.16410   2.71810  -2.02043
H     1.29589  -1.25520  -2.58194
H     1.98375  -0.33935   2.07120
H     2.37572  -2.32861   3.48697
H     2.76723  -4.55909   2.43624
H     2.72315  -4.77837  -0.04845
H     2.31880  -2.79835  -1.46568
H     3.15137   3.72852   2.35867
H     4.60914   3.76199   1.30870
H     3.29870   4.97334   1.06618
H    -0.96348   0.05971  -2.61532
