28
Generated by autodE on: 2022-06-17. E = -758.025633 Ha
C     3.30786  -0.25505  -0.18774
C     2.11306  -1.12770  -0.48011
O     2.21609  -2.22334  -1.03397
N     0.89755  -0.65144  -0.07858
N     0.81000   0.56706   0.61891
C    -0.44592   1.13704   0.11510
C    -0.91406   2.24270   0.96963
N    -1.25585   3.17233   1.56982
C    -0.20229   1.71246  -1.22740
N     0.00160   2.16081  -2.27551
C    -1.40872  -0.08997   0.01268
C    -2.10664  -0.37357   1.32639
O    -1.77737   0.10941   2.38722
C    -0.43375  -1.26169  -0.39953
C    -0.64242  -2.53848   0.42198
C    -0.58201  -1.55405  -1.89560
H     4.19395  -0.73302  -0.62343
H     3.17088   0.74949  -0.61323
H     3.45178  -0.13689   0.89669
H     0.67626   0.37695   1.61890
H    -2.17997   0.05015  -0.75586
H    -2.95947  -1.08266   1.25299
H    -0.49780  -2.35641   1.49692
H    -1.65240  -2.94246   0.26179
H     0.08772  -3.29343   0.10181
H    -1.60609  -1.90479  -2.08801
H    -0.40184  -0.65468  -2.50067
H     0.12231  -2.33301  -2.20812
