14
Generated by autodE on: 2022-07-27. E = -487.306977 Ha
C     3.24661  -1.17838  -0.65507
C     2.08448  -0.26476  -0.84895
O     2.05015   0.67232  -1.63456
N     0.97982  -0.57800  -0.01647
N     0.01764   0.24784  -0.21849
C    -1.16230   0.23239   0.39982
C    -2.13194   1.21622   0.07504
N    -2.94069   2.01410  -0.17704
C    -1.43749  -0.76310   1.37539
N    -1.68746  -1.56782   2.17719
H     4.06863  -0.89872  -1.32434
H     3.57685  -1.13175   0.39521
H     2.93356  -2.21736  -0.84616
H     0.18947   0.99037  -0.93417
