14
Generated by autodE on: 2022-06-17. E = -270.683223 Ha
C    -1.60640  -1.60769  -0.59590
C    -0.65343  -0.49115  -0.30749
C    -0.90128   0.79726  -1.03847
C     0.36976  -0.66956   0.57255
C     1.36334   0.32865   0.93873
O     1.44227   1.47834   0.51180
H    -1.60322  -1.83315  -1.67696
H    -2.63720  -1.29243  -0.35602
H    -1.37004  -2.52303  -0.03606
H    -1.79128   0.72564  -1.67913
H    -0.03426   1.06633  -1.66292
H    -1.03380   1.63221  -0.33262
H     0.48007  -1.64061   1.06405
H     2.11233  -0.02908   1.68642
