24
Generated by autodE on: 2022-05-30. E = -701.402701 Ha
C    -1.94678  -2.07536   0.80008
N    -1.92714  -1.64370  -0.58655
C    -1.22691  -0.62109  -1.07432
O    -1.27253  -0.18377  -2.22380
C    -0.23332   0.06845  -0.15173
O    -0.64621   1.01296   0.60045
N    -2.05614   1.24887   0.63229
C    -2.25491   2.24038   1.47400
N    -2.56990   3.11513   2.19798
C     1.17826  -0.20024  -0.21078
C     2.09270   0.57449   0.54117
C     3.44926   0.28596   0.48395
C     3.91079  -0.77068  -0.31516
C     3.01217  -1.54239  -1.06043
C     1.64992  -1.26425  -1.01274
H    -2.85310  -1.72201   1.31451
H    -1.06856  -1.68643   1.33239
H    -1.91233  -3.17232   0.84896
H    -2.59983  -2.05893  -1.23027
H     1.72497   1.39410   1.15959
H     4.15687   0.88360   1.06169
H     4.97953  -0.99228  -0.35592
H     3.37679  -2.36369  -1.67992
H     0.95181  -1.86715  -1.59519
