24
Generated by autodE on: 2022-07-26. E = -701.392391 Ha
C    -1.05815   1.60509  -1.85686
N     0.37027   1.35514  -1.77645
C     1.02118   0.85045  -0.72959
O     2.24160   0.81153  -0.57770
C     0.22988   0.14244   0.36413
O     0.20082   0.60850   1.55839
N     0.63743   1.89133   2.00073
C     0.51762   2.82588   1.08486
N     0.43326   3.77306   0.38634
C    -0.30174  -1.18541   0.16842
C    -0.92126  -1.87210   1.24012
C    -1.43299  -3.14668   1.04008
C    -1.33922  -3.75338  -0.22114
C    -0.73052  -3.08121  -1.28654
C    -0.21418  -1.80296  -1.10040
H    -1.58325   1.08834  -1.04340
H    -1.45486   1.24172  -2.81505
H    -1.26237   2.68276  -1.76413
H     0.96668   1.78736  -2.48170
H    -0.99878  -1.39175   2.21564
H    -1.91288  -3.67470   1.86621
H    -1.74664  -4.75537  -0.37278
H    -0.65980  -3.55577  -2.26682
H     0.25622  -1.28471  -1.93600
