40
Generated by autodE on: 2022-05-30. E = -1139.600844 Ha. Imaginary frequency = -288.9 cm-1
C     1.33550  -2.90916  -2.34656
N     1.44399  -1.72477  -1.51740
C     1.24604  -1.79287  -0.19414
O     1.07347  -2.83585   0.44119
C     1.24511  -0.49594   0.51195
C     1.66600   0.30697   1.35213
C     2.37824   1.08926   2.36198
C     2.23026   0.61272   3.77617
O     3.05781   2.04798   2.02970
N    -0.14138   1.82356   1.70507
C     0.26524   2.83618   0.95011
N     0.71127   3.81212   0.47264
O    -1.01121   0.91426   1.12798
C    -0.81994   0.35632  -0.05139
C    -0.38698   1.22324  -1.24291
O     0.60620   0.97759  -1.92733
N    -1.24472   2.21918  -1.48948
C    -0.95569   3.22846  -2.49260
C    -1.58421  -0.85665  -0.29118
C    -2.06832  -1.61256   0.79930
C    -2.75569  -2.79741   0.56880
C    -2.95665  -3.25084  -0.74221
C    -2.46888  -2.51355  -1.82630
C    -1.78458  -1.32088  -1.60824
H     0.32650  -3.34974  -2.28438
H     2.06213  -3.67300  -2.03309
H     1.53993  -2.63179  -3.38763
H     1.35939  -0.79441  -1.93420
H     2.75360   1.29609   4.45784
H     1.16398   0.54447   4.03988
H     2.65393  -0.40188   3.85967
H    -1.99686   2.39476  -0.82687
H    -1.85721   3.82856  -2.66236
H    -0.65279   2.75028  -3.43371
H    -0.13885   3.88534  -2.15028
H    -1.88815  -1.26558   1.81694
H    -3.12953  -3.38053   1.41260
H    -3.49095  -4.18711  -0.91779
H    -2.62195  -2.86961  -2.84657
H    -1.40002  -0.75802  -2.45932
