34
Generated by autodE on: 2022-07-27. E = -911.083343 Ha
C    -1.51901  -2.28679   3.65573
N    -1.09016  -1.54880   2.48325
C    -0.82232  -0.21475   2.56445
O    -0.93558   0.39133   3.63932
C    -0.37745   0.43087   1.31068
N     0.21508  -0.39778   0.39993
C     0.53820  -0.29454  -0.87350
C     1.42304  -1.41861  -1.31594
O     1.67565  -2.33538  -0.51547
N     1.89178  -1.36479  -2.56682
C     2.77841  -2.38272  -3.09222
C    -0.04981   0.66995  -1.84816
O     0.62712   1.11207  -2.78807
N    -1.36884   0.89560  -1.73246
C    -2.03017   1.89022  -2.55663
C    -0.30120   1.86940   1.11043
C    -0.84663   2.80501   2.16009
O     0.24090   2.33745   0.09798
H    -1.55473  -3.35523   3.40871
H    -2.51767  -1.96926   4.00142
H    -0.81202  -2.13737   4.48424
H    -1.27020  -1.97016   1.57814
H     0.57505  -1.29916   0.76841
H     1.69041  -0.51653  -3.09781
H     3.73988  -2.39690  -2.55291
H     2.96912  -2.17394  -4.15150
H     2.32470  -3.38115  -3.00092
H    -1.84522   0.58683  -0.88991
H    -3.11027   1.84156  -2.37341
H    -1.67202   2.90593  -2.32016
H    -1.83890   1.69612  -3.62134
H    -0.85235   3.82018   1.74139
H    -0.21695   2.78209   3.06141
H    -1.85933   2.51360   2.47215
