22
Generated by autodE on: 2022-06-07. E = -496.693785 Ha
N     1.32765   0.08257  -2.79988
C     0.62885   0.38088  -1.92495
C    -0.26658   0.70932  -0.79231
C    -1.02923   1.92646  -1.14014
N    -1.65552   2.86825  -1.39182
C     0.51956   0.86294   0.44029
C     0.98320   0.44345   1.47918
C     1.25860  -0.41740   2.61722
C     0.84781  -1.85215   2.19708
C    -0.53461  -1.98603   1.52384
C    -0.63461  -1.77882  -0.01475
C    -1.27355  -0.48412  -0.54955
H     0.65829  -0.08343   3.48029
H     2.31509  -0.38727   2.92591
H     1.61930  -2.25762   1.52161
H     0.86771  -2.47411   3.10603
H    -0.87378  -3.01420   1.72341
H    -1.26217  -1.33268   2.03624
H     0.35242  -1.93036  -0.48421
H    -1.26676  -2.58831  -0.40988
H    -1.77407  -0.67078  -1.51111
H    -2.03126  -0.10557   0.15228
