18
Generated by autodE on: 2022-06-25. E = -235.968071 Ha
C     1.96042   0.19910   0.06210
C     0.47958   0.47656  -0.03790
C     0.19960   1.94792  -0.22928
C    -0.47958  -0.47655   0.03789
C    -1.96043  -0.19910  -0.06198
C    -0.19958  -1.94793   0.22916
H     2.21573  -0.85971   0.18862
H     2.39857   0.75553   0.91025
H     2.48080   0.56563  -0.84089
H     0.61717   2.53035   0.61174
H     0.70845   2.31992  -1.13663
H    -0.86411   2.19962  -0.31548
H    -2.48078  -0.56620   0.84079
H    -2.21580   0.85978  -0.18782
H    -2.39858  -0.75503  -0.91047
H    -0.70784  -2.31988   1.13686
H    -0.61777  -2.53033  -0.61157
H     0.86417  -2.19971   0.31462
