55
Generated by autodE on: 2022-06-25. E = -1265.191056 Ha. Imaginary frequency = -326.0 cm-1
C    -1.54547  -4.06903  -0.56791
N    -1.54358  -2.75975   0.05207
C    -1.20650  -1.65826  -0.65327
O    -1.12432  -1.66587  -1.88043
C    -1.12566  -0.40990   0.24779
C    -2.49011   0.06150   0.62094
C    -2.76903   0.70199   1.84456
C    -4.04958   1.17511   2.13029
C    -5.08410   1.02977   1.20077
C    -4.82461   0.39358  -0.01607
C    -3.54689  -0.08840  -0.30024
N    -0.19977  -0.44540   1.25795
C     1.18193  -0.44037   1.11447
C     1.79433   0.38732   2.16234
O     1.11315   1.05346   2.94372
O     3.12694   0.40672   2.20440
C     3.72519   1.28123   3.16889
C     1.86017  -1.48007   0.35651
O     1.29088  -2.40948  -0.20456
O     3.19759  -1.33238   0.27257
C     3.90084  -2.33506  -0.46648
C     1.10113   1.03719  -0.94228
C     2.10595   1.99429  -0.35541
C     1.64746   0.21636  -2.07673
C    -0.29429   1.30796  -0.87733
C    -1.08335   1.28660  -2.17384
C    -0.72242   2.44602   0.02751
H    -2.16282  -4.06079  -1.47715
H    -1.96327  -4.79940   0.13661
H    -0.52532  -4.38396  -0.84714
H    -1.43585  -2.71261   1.05999
H    -1.99588   0.84789   2.60048
H    -4.23773   1.66366   3.08902
H    -6.08501   1.40437   1.42647
H    -5.62248   0.26599  -0.75117
H    -3.36757  -0.58612  -1.25332
H    -0.42838   0.16471   2.04373
H     3.43387   2.32443   2.97853
H     4.80822   1.16336   3.04633
H     3.42580   0.99960   4.18857
H     3.56388  -2.36187  -1.51281
H     3.75598  -3.32772  -0.01512
H     4.95959  -2.05309  -0.42049
H     1.77410   2.48571   0.56564
H     3.07179   1.50586  -0.16922
H     2.28585   2.79356  -1.10218
H     1.03259  -0.66290  -2.29934
H     2.67777  -0.10379  -1.87419
H     1.68211   0.84264  -2.98851
H    -2.16577   1.27065  -1.98291
H    -0.86790   2.22596  -2.71708
H    -0.83725   0.44589  -2.82514
H    -0.36927   2.32271   1.06065
H    -0.31179   3.39934  -0.34857
H    -1.81509   2.54977   0.04584
