43
Generated by autodE on: 2022-06-18. E = -813.109492 Ha
C    -3.17502   1.75814   1.05334
C    -2.68603   0.40479   1.47495
O    -3.30592  -0.30705   2.25196
C    -1.37096  -0.09651   0.90680
O    -0.67003   0.94259   0.25614
C     0.23451   0.42220  -0.74118
C    -0.04572   1.22027  -2.01928
C     1.67125   0.69837  -0.29397
C     1.95199   1.11171   1.01494
C     3.26770   1.34771   1.42729
C     4.32826   1.17596   0.53423
C     4.05957   0.76553  -0.77586
C     2.74466   0.53202  -1.18521
C    -0.09699  -1.13848  -0.82560
C    -0.08156  -1.66967  -2.26194
C     0.92423  -1.96960  -0.02771
C    -1.52279  -1.22715  -0.14413
C    -2.67465  -0.92560  -1.11893
C    -1.82159  -2.57288   0.52176
H    -2.45389   2.52523   1.37845
H    -3.22200   1.82032  -0.04466
H    -4.16116   1.95515   1.49358
H    -0.79175  -0.48465   1.76578
H     0.10226   2.28923  -1.80338
H    -1.07718   1.07938  -2.36373
H     0.63126   0.94185  -2.83633
H     1.12976   1.24975   1.71709
H     3.46209   1.66935   2.45364
H     5.35638   1.36110   0.85455
H     4.87885   0.62619  -1.48560
H     2.55793   0.20259  -2.20886
H    -0.37096  -2.73235  -2.27089
H     0.93479  -1.60134  -2.67947
H    -0.75836  -1.13191  -2.93576
H     1.92851  -1.86170  -0.45671
H     0.66291  -3.03568  -0.07179
H     0.98427  -1.67322   1.02900
H    -2.73937  -1.70403  -1.89196
H    -2.57325   0.04466  -1.62064
H    -3.63541  -0.92672  -0.58156
H    -1.76439  -3.38962  -0.21487
H    -1.13283  -2.80079   1.34591
H    -2.84046  -2.56647   0.93587
