25
Generated by autodE on: 2022-07-27. E = -577.052930 Ha
C    -3.92009   0.50867   0.05759
C    -2.98329  -0.16912   1.04391
O    -3.42926  -0.65035   2.11426
C    -1.60564  -0.22142   0.73904
O    -1.22274   0.28153  -0.45590
C    -0.09621   0.38784  -1.07790
C    -0.23670   0.85611  -2.48713
C     1.19876   0.07116  -0.49386
C     1.46827   0.17716   0.89068
C     2.74735  -0.07434   1.38325
C     3.77859  -0.45402   0.51825
C     3.52934  -0.55438  -0.85539
C     2.26121  -0.28161  -1.36007
H    -3.74592   1.59731   0.04075
H    -3.77238   0.14026  -0.96914
H    -4.95644   0.32125   0.37008
H    -0.87127  -0.69367   1.38616
H     0.50107   1.63737  -2.72360
H    -1.25184   1.24022  -2.65140
H    -0.06748   0.02252  -3.19174
H     0.69259   0.49980   1.58270
H     2.93962   0.02791   2.45349
H     4.77528  -0.66535   0.91199
H     4.33085  -0.84458  -1.53813
H     2.08480  -0.36088  -2.43320
