25
Generated by autodE on: 2022-06-18. E = -577.063036 Ha
C     3.08203   1.21157  -0.25203
C     3.26756  -0.27951  -0.02165
O     4.41798  -0.77745   0.03073
C     2.11640  -1.08436   0.12977
O     0.91596  -0.46928   0.05868
C    -0.26590  -0.98813   0.16364
C    -0.37256  -2.44499   0.39193
C    -1.36674  -0.05055   0.03720
C    -2.70855  -0.47847   0.14753
C    -3.75577   0.43314   0.02214
C    -3.49246   1.78563  -0.21483
C    -2.16557   2.22392  -0.32551
C    -1.11426   1.32285  -0.20178
H     2.53937   1.68045   0.58407
H     4.07093   1.67973  -0.34808
H     2.50011   1.40482  -1.16715
H     2.15477  -2.15839   0.30037
H    -1.40789  -2.79050   0.45570
H     0.13755  -2.98709  -0.42555
H     0.15692  -2.71724   1.32366
H    -2.93889  -1.52724   0.33374
H    -4.78639   0.08266   0.11076
H    -4.31556   2.49686  -0.31308
H    -1.95234   3.27910  -0.51061
H    -0.08517   1.67190  -0.29011
