43
Generated by autodE on: 2022-06-18. E = -813.018097 Ha. Imaginary frequency = -333.8 cm-1
C    -3.46191   1.63938   0.58473
C    -2.58725   0.69830   1.38330
O    -3.02974   0.12013   2.39744
C    -1.25207   0.45412   0.93237
O    -0.83964   1.17140  -0.12603
C     0.27650   0.99016  -0.82192
C     0.18087   1.61415  -2.18019
C     1.58385   0.82733  -0.19069
C     1.79914   0.95792   1.20010
C     3.07889   0.83896   1.74227
C     4.18063   0.58141   0.92092
C     3.98861   0.46881  -0.46049
C     2.71521   0.59743  -1.00942
C    -0.23401  -1.52766  -1.05204
C    -0.40600  -1.43317  -2.54936
C     1.06903  -2.14654  -0.61103
C    -1.35325  -1.61438  -0.21846
C    -2.73347  -1.47460  -0.81652
C    -1.30531  -2.42262   1.05610
H    -3.12026   2.67902   0.71998
H    -3.41672   1.42277  -0.49244
H    -4.49775   1.55485   0.93992
H    -0.52366   0.01390   1.60578
H     0.58529   2.64232  -2.16836
H    -0.86696   1.64870  -2.50426
H     0.75472   1.05181  -2.92745
H     0.97330   1.19195   1.86917
H     3.21440   0.95444   2.82030
H     5.17921   0.47762   1.35114
H     4.83984   0.27916  -1.11860
H     2.59328   0.50425  -2.08829
H    -0.65394  -2.43196  -2.95987
H     0.52213  -1.11107  -3.04365
H    -1.21050  -0.75392  -2.85844
H     1.89440  -1.86012  -1.27642
H     0.99704  -3.25067  -0.63830
H     1.35461  -1.86635   0.41269
H    -2.97354  -2.36454  -1.42823
H    -2.82097  -0.60037  -1.47671
H    -3.50440  -1.39739  -0.03640
H    -1.49250  -3.48819   0.82247
H    -0.33440  -2.36654   1.56487
H    -2.08130  -2.09860   1.76479
