23
Generated by autodE on: 2022-06-25. E = -351.521384 Ha
C     3.67999   0.86689  -0.06858
C     2.58452   0.07749  -0.01691
C     2.70300  -1.42236   0.07550
C     1.25148   0.67580  -0.04963
C     0.07816  -0.00396  -0.00312
C    -1.21927   0.63952  -0.03811
C    -2.43255   0.03345   0.00904
C    -3.69837   0.84159  -0.03829
C    -2.63526  -1.45162   0.11137
H     3.59022   1.95556  -0.13562
H     4.68906   0.44601  -0.04533
H     2.20756  -1.91357  -0.77846
H     3.75550  -1.73848   0.09261
H     2.21160  -1.80433   0.98579
H     1.21927   1.76992  -0.11775
H     0.10200  -1.09497   0.06508
H    -1.20361   1.73375  -0.11073
H    -4.31361   0.65826   0.86099
H    -3.50043   1.92115  -0.11052
H    -4.32189   0.54216  -0.89994
H    -3.21909  -1.69561   1.01654
H    -1.69910  -2.02366   0.14434
H    -3.23153  -1.81595  -0.74382
