35
Generated by autodE on: 2022-07-27. E = -804.414833 Ha
C    -3.62963  -1.84422   0.99475
C    -2.22695  -1.62156   0.47582
O    -2.03778  -1.44375  -0.74768
N    -1.29113  -1.63026   1.44650
N    -0.01464  -1.36804   1.00262
C     0.93430  -2.41818   1.38880
C     0.32638  -0.28955   0.33313
C    -0.58182   0.87104   0.22817
C    -0.70346   1.54181  -0.99993
C    -1.52333   2.66601  -1.11020
C    -2.21306   3.14175   0.00842
C    -2.08194   2.48697   1.23933
C    -1.28000   1.35236   1.35004
C     1.64588  -0.18760  -0.32374
C     2.09465  -1.19921  -1.19167
C     3.31707  -1.06527  -1.85012
C     4.10501   0.07185  -1.64380
C     3.65970   1.08574  -0.78854
C     2.42958   0.96601  -0.14246
H    -4.15067  -2.57504   0.35762
H    -3.64100  -2.17932   2.04000
H    -4.18125  -0.89163   0.91977
H     0.68864  -2.69773   2.42088
H     1.96674  -2.06145   1.32925
H     0.79484  -3.29602   0.74260
H    -0.16195   1.17105  -1.87166
H    -1.62080   3.17330  -2.07251
H    -2.85006   4.02530  -0.07532
H    -2.60826   2.86418   2.11901
H    -1.18866   0.83844   2.30667
H     1.47091  -2.07694  -1.36766
H     3.65333  -1.84997  -2.53127
H     5.06393   0.17242  -2.15731
H     4.27103   1.97659  -0.62899
H     2.07494   1.76063   0.51638
