35
Generated by autodE on: 2022-06-25. E = -804.414851 Ha
C     3.39057  -2.44343   0.27669
C     2.44691  -1.27359   0.44166
O     1.79597  -1.14471   1.50208
N     2.40674  -0.46387  -0.63582
N     1.50726   0.57293  -0.52546
C     2.13842   1.88244  -0.72215
C     0.22478   0.41211  -0.28932
C    -0.41651  -0.91522  -0.38549
C    -1.36684  -1.29121   0.57821
C    -2.01535  -2.52367   0.48465
C    -1.73579  -3.38248  -0.58190
C    -0.80171  -3.00542  -1.55477
C    -0.13678  -1.78462  -1.45509
C    -0.63147   1.56196   0.06874
C    -0.27371   2.41555   1.12753
C    -1.11712   3.46337   1.49709
C    -2.31757   3.67373   0.81071
C    -2.68280   2.82213  -0.23772
C    -1.85286   1.76100  -0.59880
H     2.78844  -3.36193   0.17176
H     4.00453  -2.55667   1.18322
H     4.03587  -2.33919  -0.60519
H     2.83992   1.77030  -1.55824
H     2.70413   2.15660   0.17928
H     1.39429   2.65041  -0.95308
H    -1.58638  -0.61850   1.40877
H    -2.74347  -2.81189   1.24596
H    -2.24767  -4.34445  -0.65951
H    -0.59057  -3.66797  -2.39712
H     0.59790  -1.49933  -2.20763
H     0.65366   2.23771   1.67436
H    -0.83833   4.11493   2.32808
H    -2.97410   4.49793   1.09882
H    -3.62175   2.98206  -0.77217
H    -2.14090   1.08817  -1.40851
