58
Generated by autodE on: 2022-06-25. E = -1155.912930 Ha. Imaginary frequency = -384.9 cm-1
C    -1.71562  -0.52477   5.62908
C    -0.24089  -0.26272   5.82708
O     0.27337  -0.31384   6.95806
N     0.45200   0.07278   4.71577
C    -0.22660  -0.05756   2.94336
C     0.43460   0.81859   2.05787
C    -0.09658   2.21190   1.86400
C     1.51036   0.33311   1.25480
C     2.28144   1.04378   0.36936
C     3.38632   0.45736  -0.34978
C     4.30463   1.08011  -1.13555
C     4.30337   2.55576  -1.42248
C     5.43824   0.31137  -1.75578
C     2.43766   1.22748   4.32686
C     1.82222   2.54503   4.53448
C     2.13067   3.61195   3.66381
C     1.58718   4.88079   3.86552
C     0.72647   5.11523   4.94101
C     0.42437   4.06907   5.82310
C     0.96445   2.80052   5.62772
C     3.81651   1.16122   3.81301
C     4.23732   0.16669   2.90554
C     5.53366   0.17176   2.38868
C     6.44200   1.16152   2.77020
C     6.04737   2.14627   3.68472
C     4.75188   2.14970   4.19513
N     1.80481   0.11705   4.75489
C     2.45327  -1.18628   4.92793
H    -1.88280  -1.36340   4.93679
H    -2.15999  -0.76250   6.60346
H    -2.21632   0.36166   5.21054
H    -1.25217   0.19049   3.21787
H    -0.03961  -1.12899   2.82517
H    -0.69344   2.28899   0.93558
H     0.70530   2.95984   1.77922
H    -0.73964   2.51584   2.70344
H     1.74916  -0.73050   1.38135
H     2.08457   2.11197   0.23903
H     3.51605  -0.62242  -0.20108
H     4.27244   2.74493  -2.51099
H     3.46048   3.08828  -0.96180
H     5.23748   3.02252  -1.05924
H     5.44174   0.41471  -2.85696
H     6.41526   0.69995  -1.41259
H     5.39294  -0.76084  -1.51157
H     2.79052   3.43794   2.81391
H     1.83332   5.68836   3.17227
H     0.30038   6.10855   5.09952
H    -0.22680   4.24891   6.68184
H     0.75808   2.01263   6.35114
H     3.54582  -0.60479   2.58240
H     5.82882  -0.59727   1.67181
H     7.45486   1.16610   2.36086
H     6.75466   2.91553   4.00265
H     4.45885   2.91884   4.91029
H     1.99239  -1.66845   5.79857
H     3.52342  -1.05761   5.11657
H     2.30036  -1.81546   4.03893
