46
Generated by autodE on: 2022-06-03. E = -1355.087411 Ha. Imaginary frequency = -233.0 cm-1
C     4.33745   1.50696  -0.55982
O     3.44164   0.60372   0.10857
C     2.73627  -0.21726  -0.67106
O     2.80038  -0.25976  -1.88368
C     1.81916  -1.02282   0.12483
O     0.90750  -1.78810  -0.51320
N     0.06407  -2.29713   0.41297
O     0.77449  -2.32071   1.57030
C     1.87270  -1.43435   1.49326
O     2.59144  -1.21482   2.43537
C    -1.12200  -0.51452   0.70825
C    -2.28127  -0.81708  -0.17593
C    -2.98748   0.24943  -0.76452
C    -4.14690   0.01469  -1.50481
C    -4.62687  -1.28860  -1.66615
C    -3.94600  -2.35236  -1.06743
C    -2.78775  -2.11936  -0.32200
C    -1.39716  -0.47334   2.23822
C    -2.18628   0.83523   2.46869
C    -1.28842   1.81392   2.30184
C     0.02977   1.08472   1.97180
O    -0.11674  -0.10466   2.74887
C    -0.17184   0.52687   0.54114
C     0.14487   1.29825  -0.65217
C    -0.10979   0.80895  -1.95389
C     0.22050   1.56668  -3.07423
C     0.81229   2.82596  -2.92803
C     1.08056   3.32003  -1.64715
C     0.75642   2.56491  -0.52142
H     3.77593   2.15808  -1.24480
H     5.09798   0.94545  -1.12060
H     4.80754   2.10063   0.23188
H    -2.62954   1.27069  -0.63319
H    -4.67846   0.85618  -1.95531
H    -5.53199  -1.47337  -2.24945
H    -4.31921  -3.37328  -1.17750
H    -2.26666  -2.95459   0.14378
H    -1.78039  -1.39604   2.68567
H    -3.25590   0.89819   2.66289
H    -1.42321   2.89449   2.31599
H     0.97615   1.59113   2.18055
H    -0.55187  -0.17704  -2.08470
H     0.01958   1.16851  -4.07121
H     1.06874   3.41783  -3.80954
H     1.54796   4.29929  -1.52330
H     0.98037   2.96455   0.46787
