19
Generated by autodE on: 2022-06-16. E = -664.755148 Ha
N     4.33376   1.45891  -0.18344
C     3.34125   0.84671  -0.10227
C     2.17371   0.09214  -0.00183
O     0.92519   0.72711  -0.09921
C     0.00280  -0.17971   0.02697
C    -1.40270   0.12613  -0.02520
C    -2.34331  -0.91423   0.11575
C    -3.70156  -0.61743   0.06416
C    -4.12379   0.70406  -0.12599
C    -3.18837   1.73753  -0.26568
C    -1.82712   1.45712  -0.21653
O     0.48812  -1.36889   0.20038
C     1.98410  -1.27917   0.19414
O     2.63616  -2.28007   0.34150
H    -2.00152  -1.93957   0.26283
H    -4.43614  -1.41754   0.17217
H    -5.19143   0.93125  -0.16586
H    -3.52528   2.76522  -0.41338
H    -1.09037   2.25433  -0.32390
