51
Generated by autodE on: 2022-06-22. E = -1109.701733 Ha
C     3.39217   0.58338   1.97672
N     2.45958   0.69713   0.87862
C     2.47859  -0.13403  -0.17243
O     3.39072  -0.94839  -0.37176
C     1.29418   0.00824  -1.15405
C     1.86823   0.10868  -2.57499
C     0.32046  -1.23349  -1.08441
N     0.85010  -2.51008  -0.68402
C     1.62284  -3.28429  -1.63676
C     0.92376  -2.79685   0.66077
C     0.30311  -2.08237   1.62620
C    -0.51702  -0.86357   1.30797
C    -0.85853  -0.75455  -0.19502
C    -2.09667  -1.56698  -0.59704
N    -2.38277  -2.63532   0.16471
O    -2.77005  -1.27495  -1.59307
C    -0.96697   0.71663  -0.66263
C    -1.81387   1.58523   0.24810
C    -1.25796   2.36254   1.27422
C    -2.07565   3.10340   2.13307
C    -3.46487   3.07793   1.97991
C    -4.02938   2.31155   0.95488
C    -3.20957   1.57644   0.09505
N     0.42826   1.14015  -0.76520
C     0.63287   2.40749  -1.43907
H     3.18354  -0.31079   2.59024
H     3.31642   1.47338   2.61453
H     4.42238   0.50232   1.60009
H     1.61936   1.26965   0.94520
H     2.57534   0.94460  -2.67219
H     1.05530   0.24776  -3.30209
H     2.40145  -0.81575  -2.82975
H    -0.07286  -1.34789  -2.10467
H     1.61781  -4.34487  -1.34458
H     2.67040  -2.94692  -1.70873
H     1.16366  -3.20539  -2.63350
H     1.50565  -3.68881   0.90721
H     0.40655  -2.39673   2.66627
H     0.01462   0.04615   1.62124
H    -1.45206  -0.85589   1.89047
H    -3.14141  -3.24702  -0.12056
H    -1.75423  -2.93762   0.90459
H    -1.45215   0.70488  -1.65603
H    -0.17470   2.39537   1.39753
H    -1.62276   3.70489   2.92516
H    -4.10392   3.65710   2.65083
H    -5.11373   2.28929   0.82062
H    -3.65299   0.98019  -0.70468
H     0.05649   3.19358  -0.93038
H     0.31759   2.39839  -2.50125
H     1.69270   2.69621  -1.39534
