20
Generated by autodE on: 2022-06-22. E = -457.715326 Ha
C     3.07993  -0.33144  -0.70003
N     1.81923  -0.20525   0.01279
C     1.82702   0.03133   1.39334
C     0.70558   0.25516   2.09642
C    -0.66857   0.27555   1.47336
C    -0.57490   0.04262  -0.02572
C    -1.77606   0.03134  -0.87600
N    -2.95735   0.24595  -0.24377
O    -1.74456  -0.16206  -2.10849
C     0.62319  -0.17170  -0.63895
H     3.63276   0.62330  -0.71741
H     3.71808  -1.09143  -0.22358
H     2.88277  -0.64055  -1.73425
H     2.81560   0.01691   1.85594
H     0.79199   0.42514   3.17208
H    -1.31584  -0.48777   1.95280
H    -1.17082   1.23971   1.69422
H    -3.02425   0.41929   0.75103
H    -3.80802   0.25433  -0.79585
H     0.66103  -0.33519  -1.71706
