31
Generated by autodE on: 2022-07-27. E = -651.916458 Ha
C     3.43217  -1.56809   0.41654
N     2.31259  -0.81417  -0.10813
C     2.09708  -0.75731  -1.46027
O     3.01119  -1.14401  -2.22782
C     0.80693  -0.33527  -2.00565
C     0.60943  -0.49081  -3.48572
N    -0.24982   0.07192  -1.23252
C    -1.60190  -0.10261  -1.80308
C    -0.11103   0.68325  -0.03917
C    -1.06229   0.74669   1.04567
C    -0.86740   1.75812   2.02125
C    -1.71209   1.87475   3.12134
C    -2.77744   0.98169   3.29494
C    -2.97044  -0.03963   2.35725
C    -2.12725  -0.16613   1.25432
H     3.37849  -2.64368   0.16790
H     3.44797  -1.46277   1.50935
H     4.38176  -1.18372   0.01600
H     1.53460  -0.63339   0.51777
H     0.18324   0.41488  -3.95023
H     1.58371  -0.68163  -3.94771
H    -0.05354  -1.33377  -3.75207
H    -1.85196  -1.16881  -1.88269
H    -1.62127   0.34372  -2.80336
H    -2.33470   0.41593  -1.18200
H     0.85171   1.16578   0.12082
H    -0.03830   2.45894   1.89502
H    -1.53983   2.66951   3.85146
H    -3.44120   1.07269   4.15756
H    -3.78140  -0.75945   2.49415
H    -2.27891  -0.99934   0.56805
