31
Generated by autodE on: 2022-06-22. E = -651.923408 Ha
C    -4.00967   1.97180   1.15496
N    -3.03984   0.91170   0.98994
C    -2.30637   0.80825  -0.16239
O    -2.55053   1.59101  -1.11033
C    -1.27605  -0.21722  -0.18502
C    -1.00365  -1.09552   0.99228
N    -0.51676  -0.38811  -1.32041
C    -1.10820  -0.17920  -2.65953
C     0.74433  -0.84609  -1.31494
C     1.73921  -0.68818  -0.28144
C     2.92054  -1.46721  -0.38123
C     3.96923  -1.30777   0.51867
C     3.88553  -0.35261   1.54167
C     2.73872   0.44185   1.64208
C     1.67238   0.27340   0.75831
H    -4.77410   1.93936   0.36309
H    -3.54703   2.97449   1.12496
H    -4.50900   1.84875   2.12476
H    -2.75226   0.40142   1.81451
H    -1.94658  -1.36470   1.49363
H    -0.33339  -0.66466   1.76199
H    -0.52354  -2.02890   0.65704
H    -2.18206  -0.38466  -2.63314
H    -0.61136  -0.86806  -3.35455
H    -0.94017   0.85118  -2.99339
H     1.06834  -1.31639  -2.24471
H     2.99903  -2.20399  -1.18488
H     4.86275  -1.92970   0.42283
H     4.70737  -0.22832   2.25043
H     2.66823   1.20185   2.42439
H     0.79927   0.92040   0.84546
