51
Generated by autodE on: 2022-06-22. E = -1109.627320 Ha. Imaginary frequency = -292.6 cm-1
C     4.49905  -0.27579   0.52294
N     3.11754   0.00049   0.19344
C     2.71123   0.14283  -1.08823
O     3.54190   0.12746  -2.01719
C     1.23951   0.21919  -1.35431
C     0.90593   0.12507  -2.82909
C     0.34390  -1.65549  -0.68077
N     1.31093  -2.33361   0.07868
C     2.38940  -3.00142  -0.62240
C     1.35778  -2.11981   1.44491
C     0.35675  -1.52000   2.11996
C    -0.95606  -1.19054   1.45859
C    -0.88026  -1.24265  -0.06117
C    -2.10975  -1.39162  -0.83527
N    -3.28742  -1.31138  -0.14492
O    -2.13599  -1.57432  -2.07443
C    -0.86816   1.01530  -0.71664
C    -1.91229   1.71718   0.02062
C    -1.84465   2.13688   1.36995
C    -2.95802   2.69830   1.99834
C    -4.16585   2.85004   1.31167
C    -4.25777   2.42360  -0.01814
C    -3.15119   1.86157  -0.64902
N     0.47481   1.13935  -0.60335
C     1.05915   1.99561   0.42899
H     4.85060  -1.20906   0.05087
H     4.58843  -0.37669   1.61223
H     5.16073   0.53861   0.18867
H     2.42189  -0.15395   0.91652
H     1.04535   1.09971  -3.33094
H    -0.11929  -0.21606  -3.01383
H     1.57748  -0.59733  -3.30841
H     0.25572  -2.04849  -1.69410
H     3.13896  -3.35134   0.09889
H     2.88571  -2.33576  -1.34545
H     2.01473  -3.87717  -1.18047
H     2.26954  -2.46251   1.94036
H     0.45377  -1.37835   3.19808
H    -1.33261  -0.21234   1.80921
H    -1.71810  -1.91429   1.81434
H    -4.12192  -1.17948  -0.70788
H    -3.30732  -0.88845   0.77587
H    -1.19586   0.65995  -1.68815
H    -0.93277   2.01542   1.94870
H    -2.87878   3.01409   3.04121
H    -5.03168   3.29128   1.81065
H    -5.19810   2.52681  -0.56461
H    -3.23336   1.51766  -1.68232
H     1.11202   1.50291   1.41229
H     0.44889   2.90057   0.51844
H     2.06550   2.29805   0.12672
