23
Generated by autodE on: 2022-10-06. E = -795.968887 Ha
C    -3.20593   0.67310   0.10001
C    -2.13239   0.04494  -0.73755
O    -2.22454  -0.05629  -1.95128
C    -0.91805  -0.58500  -0.04321
C    -1.01007  -2.10336  -0.25740
N    -0.95046  -0.34508   1.42488
N     0.12825   0.06539   1.86921
C     1.16190   0.21741   0.81880
C     2.31979  -0.77459   1.17325
O     3.10797  -0.37767   2.06314
O     2.34991  -1.87681   0.57300
C     0.43603   0.00579  -0.51666
C     0.28806   1.34949  -1.25369
O     0.95606   1.52102  -2.30236
O    -0.48361   2.19386  -0.71620
H    -3.64306  -0.08471   0.76964
H    -3.98609   1.09440  -0.54785
H    -2.76964   1.45535   0.73688
H    -1.03667  -2.31191  -1.33611
H    -0.12963  -2.59113   0.18104
H    -1.92026  -2.51386   0.20575
H     1.57697   1.22782   0.93649
H     0.98191  -0.70904  -1.14032
