13
Generated by autodE on: 2022-10-06. E = -340.881195 Ha
C    -1.79482  -1.37412  -0.29408
C    -0.98173  -0.11285  -0.14579
O    -1.49411   1.00876  -0.19173
C     0.45210  -0.30873   0.05699
C     1.16411  -1.63360   0.12585
N     1.14239   0.79973   0.18652
N     1.69832   1.78178   0.29308
H    -1.69598  -2.00490   0.60403
H    -2.84947  -1.11079  -0.44661
H    -1.43327  -1.97058  -1.14706
H     0.77410  -2.24748   0.95300
H     1.03161  -2.20065  -0.80906
H     2.24072  -1.48753   0.28717
