23
Generated by autodE on: 2022-10-06. E = -795.911220 Ha. Imaginary frequency = -444.5 cm-1
C    -2.80445   1.02859   0.09855
C    -2.18792  -0.10935  -0.66775
O    -2.52565  -0.38799  -1.81349
C    -1.08855  -0.87615  -0.02686
C    -0.82157  -2.27345  -0.52055
N    -0.94224  -0.68613   1.31796
N    -0.16309  -0.23759   2.05727
C     1.35474   0.42397   0.71992
C     2.39422  -0.52478   1.27743
O     3.14550  -0.06752   2.18127
O     2.43422  -1.70251   0.81605
C     0.76873   0.23518  -0.53315
C     0.24023   1.40231  -1.34444
O     0.05927   1.19036  -2.57489
O     0.01112   2.49269  -0.74655
H    -3.38560   0.63727   0.94926
H    -3.46608   1.59975  -0.56523
H    -2.01891   1.68580   0.49772
H    -0.75584  -2.22965  -1.61582
H     0.12653  -2.64740  -0.11354
H    -1.63829  -2.96404  -0.25418
H     1.36258   1.43525   1.13323
H     1.09493  -0.62159  -1.12526
