16
Generated by autodE on: 2022-12-30. E = -641.718226 Ha
C    -4.11088  -0.09724  -0.32505
O    -2.71700  -0.43093  -0.17762
C    -1.86256   0.57687  -0.20756
O    -2.12890   1.75222  -0.34643
C    -0.46881   0.11393  -0.04744
N     0.57457   0.91074  -0.04030
C     1.72927   0.16845   0.12406
C     3.02463   0.69759   0.17994
N     4.11378   1.11370   0.22992
C     1.34293  -1.20038   0.22398
O     1.90817  -2.25723   0.37066
O    -0.09820  -1.14690   0.10381
H    -4.28065   0.38751  -1.29668
H    -4.42470   0.57457   0.48602
H    -4.65158  -1.04787  -0.26918
H     0.51262   1.92624  -0.14763
