57
Generated by autodE on: 2022-12-30. E = -1524.009277 Ha. Imaginary frequency = -368.6 cm-1
C    -5.48637   4.67193   7.10792
N    -6.29959   3.51353   6.79237
C    -7.26704   3.56219   5.86943
O    -7.44211   4.56393   5.15867
C    -8.08217   2.26089   5.68599
C    -9.55324   2.46766   5.22936
O   -10.40970   1.62662   5.52307
N    -9.80604   3.52252   4.44711
C   -11.15342   3.82214   4.00645
C    -7.35952   1.45880   4.54137
C    -7.88094   0.02229   4.34751
C    -6.88116  -1.08422   4.71496
C    -6.19741  -1.00422   6.08308
C    -7.08503  -0.97927   7.35513
C    -8.12508  -2.10356   7.36315
O    -6.20280  -1.02402   8.48936
C    -5.71357  -2.28667   8.89606
C    -7.74787   0.34893   7.43051
C    -8.08906   1.44753   6.93660
C    -9.11962   2.41277   8.58561
C    -9.22341   3.87101   8.31609
O    -8.40328   4.65536   8.74455
O   -10.24508   4.16389   7.53180
C   -10.35703   5.53553   7.10147
N    -8.31775   1.96277   9.57847
C    -8.52516   0.60569   9.63886
C    -7.90620  -0.24585  10.58546
N    -7.45798  -0.95098  11.39494
C    -9.87137   0.38161   9.10820
O   -10.60759  -0.57295   9.10409
O   -10.22282   1.60194   8.53311
H    -4.96621   5.04193   6.21190
H    -4.74155   4.38498   7.85992
H    -6.10588   5.48839   7.51159
H    -6.23587   2.68937   7.38325
H    -9.05754   4.21675   4.37927
H   -11.15475   4.79778   3.50496
H   -11.52172   3.06188   3.29921
H   -11.85279   3.85543   4.85731
H    -7.47048   2.05105   3.62258
H    -6.28603   1.45055   4.77978
H    -8.16145  -0.11637   3.29189
H    -8.81119  -0.11317   4.91617
H    -6.07278  -1.09226   3.96373
H    -7.39097  -2.05641   4.61611
H    -5.54427  -1.88595   6.18320
H    -5.53930  -0.12342   6.13758
H    -8.63185  -2.16069   8.33578
H    -7.65196  -3.07211   7.14802
H    -8.88482  -1.91477   6.59290
H    -5.22433  -2.83622   8.07266
H    -4.96323  -2.09316   9.67602
H    -6.50337  -2.92328   9.32854
H   -11.24828   5.57615   6.46755
H   -10.47078   6.19413   7.97300
H    -9.46177   5.81621   6.53060
H    -7.42366   2.41331   9.77647
