47
Generated by autodE on: 2022-05-31. E = -1185.341220 Ha
C     3.47194   1.66824   1.96393
O     2.76553   1.18904   0.80819
C     1.64892   0.49390   1.03149
O     1.25699   0.20111   2.14150
C     0.87661   0.25768  -0.25109
C     1.72195   0.00799  -1.52095
C     2.66456  -1.18973  -1.27593
C     1.69620  -2.40685  -1.30612
C     0.30957  -1.76060  -1.51879
C     0.67743  -0.61030  -2.46806
C    -0.10483  -0.99224  -0.21234
C     0.06727  -1.88528   0.93363
N     0.14694  -2.68171   1.77479
C    -1.58299  -0.31374  -0.13263
C    -2.40348  -0.94500   1.04071
C    -3.03435  -2.29304   0.86714
O    -2.50706  -0.30967   2.07013
C    -2.40227  -0.49966  -1.43453
C    -3.07026   0.71380  -2.00995
O    -2.54846  -1.60517  -1.92042
N    -1.37013   1.07903   0.17444
C    -0.11680   1.48879  -0.40051
C     0.39281   2.77436   0.25063
C     1.27520   3.65471  -0.57639
O     0.06654   3.04259   1.39452
H     2.81840   2.32584   2.55479
H     3.80857   0.82580   2.58401
H     4.33180   2.22781   1.57939
H     2.22108   0.91831  -1.87301
H     3.41007  -1.25107  -2.08134
H     3.21421  -1.10520  -0.32852
H     1.75121  -3.02735  -0.40234
H     1.90780  -3.06146  -2.16335
H    -0.46232  -2.45751  -1.85125
H    -0.15302   0.05677  -2.73300
H     1.12622  -0.97931  -3.40128
H    -4.01032  -2.14699   0.37371
H    -2.44445  -2.96067   0.22925
H    -3.20389  -2.73656   1.85640
H    -3.63230   0.42247  -2.90643
H    -2.33531   1.49285  -2.25902
H    -3.74900   1.14907  -1.26022
H    -1.33988   1.19469   1.19037
H    -0.22342   1.68210  -1.47642
H     0.64523   4.15481  -1.33252
H     2.01969   3.05880  -1.12364
H     1.76410   4.41045   0.05146
