23
Generated by autodE on: 2022-07-27. E = -592.171516 Ha
C     2.41346   3.31758  -0.29189
C     1.80086   2.11787   0.36494
O     2.07113   1.76406   1.51195
C     0.83217   1.35170  -0.43843
N     0.30586   0.30418   0.14581
C    -0.58402  -0.68895  -0.12047
C    -0.70871  -1.58444   1.04612
C    -1.62632  -2.77130   1.02722
O    -0.03353  -1.33802   2.05605
C    -1.31281  -0.84255  -1.37718
C    -1.10381   0.15634  -2.48839
O    -2.09989  -1.77953  -1.54333
H     1.62065   4.02121  -0.59558
H     2.93648   3.01063  -1.21288
H     3.11432   3.81204   0.39233
H     0.57916   1.64569  -1.45168
H     0.66658   0.16836   1.11910
H    -2.66167  -2.46094   0.82569
H    -1.34737  -3.46347   0.21940
H    -1.56176  -3.27760   1.99938
H    -0.05318   0.16606  -2.81976
H    -1.74460  -0.12695  -3.33276
H    -1.36424   1.17581  -2.16194
