24
Generated by autodE on: 2022-05-31. E = -593.135200 Ha
C     3.64385  -0.62334   0.65841
O     2.21784  -0.65983   0.81174
C     1.51548   0.23829   0.11264
O     2.02193   1.06774  -0.62221
C     0.06625   0.09577   0.33997
C    -0.90736   0.69318  -0.39688
C    -0.75109   1.56473  -1.50439
N    -0.69654   2.29039  -2.41408
C    -2.24140   0.11096   0.05399
C    -2.24236  -1.36068  -0.47662
C    -1.12918  -2.03890   0.36856
C    -0.61964  -0.87250   1.28037
C    -1.93783  -0.11617   1.54932
H     4.03916   0.34967   0.98421
H     3.92118  -0.79631  -0.39152
H     4.03667  -1.42577   1.29305
H    -3.12381   0.70160  -0.21561
H    -3.22627  -1.81285  -0.28609
H    -2.05284  -1.40188  -1.55808
H    -1.53456  -2.84403   0.99805
H    -0.31604  -2.45835  -0.23968
H    -0.02247  -1.18970   2.14132
H    -2.69654  -0.73599   2.04891
H    -1.79141   0.82059   2.10628
