47
Generated by autodE on: 2022-10-21. E = -1222.380767 Ha
C    -2.73418   3.05715  -0.39751
O    -2.15891   1.90985   0.24829
C    -2.63727   0.71709  -0.08624
O    -3.54089   0.53141  -0.87229
C    -1.86134  -0.41203   0.60304
O    -1.61125  -0.12901   1.97058
C    -0.23241   0.13173   2.16974
C    -0.03103   1.57167   2.46130
N     0.06104   2.70262   2.70108
C     0.45813  -0.29203   0.87946
C    -0.48527  -0.59276  -0.02098
C    -0.43100  -0.96099  -1.49583
C    -0.58126   0.32180  -2.24909
N    -0.67271   1.32165  -2.82955
O    -1.56886  -1.78679  -1.69305
C    -1.99479  -2.02335  -3.02699
C     0.86225  -1.63316  -1.98288
C     1.29372  -2.84686  -1.14398
C     2.58388  -2.61717  -0.35102
C     2.50525  -1.78369   0.92929
C     1.98344  -0.33603   0.85027
O     2.34073   0.37631   2.02827
C     3.72303   0.56834   2.29462
O     2.52997   0.28411  -0.28457
C     2.18538   1.65489  -0.46977
H    -3.81614   3.10014  -0.21021
H    -2.54331   3.00999  -1.47917
H    -2.23444   3.92798   0.04116
H    -2.47360  -1.31935   0.52393
H     0.12913  -0.43623   3.04168
H    -2.90587  -2.63134  -2.95220
H    -1.24444  -2.57686  -3.61437
H    -2.23814  -1.08039  -3.54588
H     0.68653  -1.91966  -3.02890
H     1.65433  -0.87656  -2.00029
H     1.46349  -3.69407  -1.82522
H     0.47833  -3.16327  -0.47271
H     3.33729  -2.17486  -1.02339
H     2.98643  -3.59815  -0.05014
H     3.52242  -1.72998   1.34310
H     1.88885  -2.29759   1.68351
H     3.80072   1.47069   2.91769
H     4.29652   0.72517   1.36869
H     4.15434  -0.28168   2.84870
H     2.52839   1.93166  -1.47523
H     2.67934   2.29893   0.27475
H     1.09721   1.81429  -0.40687
