14
Generated by autodE on: 2022-10-21. E = -474.077794 Ha
C    -3.27196   0.52130   0.81957
O    -1.85971   0.28413   0.76362
C    -1.31469   0.22875  -0.46190
O    -1.94842   0.36624  -1.49929
C     0.11453  -0.01110  -0.45497
O     0.71487  -0.13737   0.69059
C     1.97681  -0.35047   0.97216
C     2.93671  -0.48447  -0.04031
N     3.72952  -0.59335  -0.89386
H    -3.82050  -0.27820   0.30001
H    -3.52124   1.48982   0.36131
H    -3.53475   0.52898   1.88382
H     0.68110  -0.07941  -1.38605
H     2.20940  -0.41498   2.03329
