14
Generated by autodE on: 2022-10-26. E = -474.068295 Ha
C    -0.86200   1.55853  -1.59428
O    -0.43429   0.56961  -0.65242
C    -0.95150  -0.65709  -0.75231
O    -1.78160  -0.98896  -1.58748
C    -0.43996  -1.57597   0.24449
O     0.45455  -1.32860   1.15661
C     1.25164  -0.40737   1.61384
C     1.45157   0.90112   1.13405
N     1.76026   1.99992   0.87886
H    -1.94382   1.73419  -1.50242
H    -0.62712   1.23943  -2.62021
H    -0.30613   2.46943  -1.34317
H    -0.82629  -2.59367   0.28405
H     1.84130  -0.74118   2.46899
