55
Generated by autodE on: 2022-06-24. E = -1211.794119 Ha
C     2.54172  -2.34426  -0.73048
C     2.97439  -1.07754  -0.04964
O     4.10980  -0.93704   0.37346
C     1.97216   0.09377   0.07949
C     2.74253   1.23309   0.80446
C     2.82092   1.20920   2.30126
O     3.26017   2.12135   0.14872
C     1.50791   0.55371  -1.32432
C     2.53128   1.34991  -2.10267
O     3.51831   0.81548  -2.57824
C     0.10307   1.15035  -1.07551
C    -0.69168   1.34127  -2.37095
C     0.19692   2.54194  -0.41423
C    -0.48446   0.08663  -0.04319
C    -1.07985  -1.22670  -0.62642
C    -0.72845  -1.80258  -1.85916
C    -1.22972  -3.04605  -2.25869
C    -2.08865  -3.76656  -1.42793
C    -2.43624  -3.22440  -0.18840
C    -1.93950  -1.97846   0.19842
C    -1.55842   0.77369   0.81309
C    -2.84532   0.97096   0.28554
C    -3.82014   1.66361   1.00616
C    -3.53117   2.16390   2.28036
C    -2.25759   1.96577   2.81832
C    -1.28117   1.28016   2.08784
N     0.72470  -0.23897   0.74982
C     0.68665  -1.30191   1.73329
H     3.04038  -3.19880  -0.25251
H     1.45632  -2.48466  -0.74380
H     2.89066  -2.28818  -1.77561
H     3.43367   2.04923   2.65185
H     1.81161   1.27777   2.73169
H     3.25738   0.25767   2.63823
H     1.39348  -0.35387  -1.92669
H     2.30563   2.41603  -2.31850
H    -0.20817   2.12438  -2.97583
H    -0.76207   0.44194  -2.99104
H    -1.71213   1.68543  -2.14942
H    -0.79834   3.00243  -0.35908
H     0.59963   2.51809   0.60442
H     0.83518   3.20333  -1.01641
H    -0.04906  -1.30393  -2.54349
H    -0.93650  -3.44950  -3.23083
H    -2.47840  -4.73838  -1.73975
H    -3.09874  -3.77190   0.48646
H    -2.23017  -1.58347   1.17152
H    -3.09418   0.57102  -0.69842
H    -4.81231   1.80832   0.57160
H    -4.29454   2.70044   2.84889
H    -2.01625   2.34834   3.81310
H    -0.28592   1.14944   2.50927
H    -0.13374  -1.13360   2.44626
H     0.54914  -2.31130   1.30451
H     1.61934  -1.30686   2.31325
