41
Generated by autodE on: 2022-07-28. E = -941.099980 Ha
C     3.15822  -1.09180   1.49779
C     3.03771   0.24297   0.77470
O     3.91135   1.10334   1.01780
C     1.93464   0.45592  -0.10899
C     1.59334   1.67512  -0.79243
C     2.48828   2.88584  -0.64371
O     0.56749   1.77247  -1.50093
N     1.04200  -0.63435  -0.41281
C     1.59119  -1.68248  -1.28371
C    -0.24140  -0.53043  -0.15419
C    -1.24391  -1.33992  -0.87368
C    -1.28776  -1.33058  -2.27919
C    -2.28022  -2.04581  -2.94812
C    -3.22243  -2.78469  -2.22439
C    -3.18597  -2.79058  -0.82580
C    -2.21304  -2.05540  -0.14923
C    -0.73946   0.40519   0.87271
C    -1.87609   1.18287   0.59316
C    -2.37860   2.06085   1.55422
C    -1.76898   2.14810   2.80910
C    -0.65250   1.35528   3.10185
C    -0.13120   0.49471   2.13788
H     3.39824  -0.88331   2.55133
H     4.00993  -1.65203   1.07773
H     2.26495  -1.72724   1.45310
H     3.51740   2.67111  -0.96449
H     2.55079   3.19538   0.41036
H     2.06700   3.70176  -1.24715
H     2.58668  -1.94885  -0.91176
H     0.94880  -2.56966  -1.28086
H     1.69743  -1.29419  -2.30629
H    -0.56554  -0.73485  -2.83826
H    -2.32086  -2.02302  -4.03918
H    -3.99402  -3.34990  -2.75210
H    -3.92487  -3.36201  -0.26012
H    -2.18938  -2.04358   0.94195
H    -2.34996   1.11163  -0.38686
H    -3.25183   2.67467   1.32346
H    -2.16820   2.82862   3.56470
H    -0.18629   1.40683   4.08804
H     0.73093  -0.12740   2.37486
