55
Generated by autodE on: 2022-06-24. E = -1211.716165 Ha. Imaginary frequency = -312.9 cm-1
C     3.44036  -1.70062  -0.59708
C     3.22077  -0.44597   0.21394
O     4.19992   0.23078   0.55722
C     1.87349   0.08377   0.46339
C     1.94482   1.35688   1.31502
C     2.36514   1.13420   2.75264
O     1.76749   2.47912   0.88717
C     1.46277   0.82462  -1.66791
C     2.49090   1.85808  -1.70432
O     3.67332   1.62599  -1.95427
C     0.08354   1.10603  -1.75571
C    -0.73684   0.38882  -2.79593
C    -0.41166   2.49827  -1.45103
C    -0.53221  -0.35300   0.19267
C    -1.37715  -1.44009  -0.35695
C    -0.85032  -2.32039  -1.32825
C    -1.61658  -3.35232  -1.86193
C    -2.94120  -3.53378  -1.44623
C    -3.48065  -2.67773  -0.48263
C    -2.70805  -1.64859   0.05924
C    -1.20327   0.68143   1.00749
C    -2.34932   1.36284   0.54534
C    -3.00303   2.29407   1.34794
C    -2.54078   2.56465   2.64259
C    -1.43912   1.86169   3.13461
C    -0.79125   0.92056   2.33153
N     0.77399  -0.74839   0.51831
C     0.98103  -2.14478   0.99280
H     3.73918  -2.52464   0.07001
H     2.56184  -2.01491  -1.17140
H     4.27565  -1.50163  -1.28349
H     1.93096   1.91050   3.39655
H     2.11642   0.13091   3.12236
H     3.46187   1.23344   2.77026
H     1.79727  -0.12187  -2.10033
H     2.15839   2.90351  -1.54735
H    -0.76604   1.02275  -3.70247
H    -0.30823  -0.57638  -3.08781
H    -1.78042   0.23534  -2.48303
H    -1.50419   2.55566  -1.51169
H    -0.09186   2.86227  -0.46863
H    -0.01992   3.19794  -2.21138
H     0.17365  -2.18079  -1.67500
H    -1.18221  -4.01378  -2.61506
H    -3.54595  -4.33926  -1.86928
H    -4.50804  -2.81722  -0.13822
H    -3.14083  -1.01372   0.83155
H    -2.72697   1.15707  -0.45536
H    -3.88093   2.81631   0.96025
H    -3.05161   3.30069   3.26759
H    -1.09066   2.02653   4.15706
H     0.01012   0.32083   2.75593
H     0.08316  -2.45510   1.54026
H     1.17062  -2.86895   0.19523
H     1.82268  -2.15190   1.69387
