47
Generated by autodE on: 2022-06-05. E = -1682.110816 Ha
C    -2.21213   3.04050  -1.71381
N    -0.98597   2.30598  -1.46774
C    -0.43804   2.25107  -0.25270
O    -0.87177   2.85721   0.73591
C     0.78271   1.33446  -0.08873
O     1.37552   1.01080  -1.34558
C     1.37400  -0.37973  -1.56338
C     2.76942  -0.86978  -1.64709
N     3.87275  -1.22492  -1.66956
C     0.61057  -0.67652  -2.87863
O    -0.28435   0.03343  -3.27732
O     1.03246  -1.78249  -3.45510
C     0.34626  -2.21070  -4.65017
C     0.67135  -0.99325  -0.34878
C     0.38118  -0.00323   0.50998
C    -0.36425  -0.08747   1.82727
Cl    0.33070  -1.46582   2.87729
C    -0.00914   1.12201   2.72549
O     1.11394   1.56878   2.81582
O    -1.04024   1.55715   3.43281
C    -0.80162   2.68801   4.28599
C    -1.87658  -0.30991   1.67939
C    -2.37648  -1.59772   1.01473
C    -2.16828  -1.74507  -0.50623
C    -1.06862  -2.72449  -0.92558
C     0.32079  -2.44400  -0.30783
H    -3.07409   2.56646  -1.21516
H    -2.40043   3.06820  -2.79412
H    -2.12727   4.07107  -1.33973
H    -0.62827   1.66979  -2.18286
H     1.51178   1.86955   0.53445
H     0.44459  -1.44380  -5.43023
H     0.83647  -3.14069  -4.95634
H    -0.71473  -2.38652  -4.42542
H    -0.48170   3.54803   3.68069
H    -1.75756   2.89966   4.77782
H    -0.02979   2.45017   5.03129
H    -2.30266  -0.25652   2.68916
H    -2.26339   0.56545   1.13217
H    -3.45694  -1.62258   1.22353
H    -1.95797  -2.46844   1.54537
H    -3.10731  -2.09569  -0.96283
H    -1.97341  -0.75619  -0.95213
H    -0.99930  -2.73075  -2.02418
H    -1.35338  -3.74875  -0.63356
H     0.32855  -2.77876   0.73541
H     1.08400  -3.03050  -0.84161
