26
Generated by autodE on: 2022-06-05. E = -999.758998 Ha
C     0.99767  -3.47557  -0.44519
O     0.99795  -2.09317  -0.04941
C     0.46848  -1.22526  -0.90238
O    -0.02484  -1.52245  -1.96737
C     0.57094   0.22016  -0.38858
Cl    2.30201   0.71353  -0.87544
C     0.36551   0.32987   1.03964
C    -0.30159   0.57628   2.02391
C    -1.41908   1.03616   2.83378
C    -2.64772   1.10411   1.89070
C    -2.42538   1.82085   0.54040
C    -1.89658   0.99596  -0.66854
C    -0.42073   1.16143  -1.09519
H    -0.03216  -3.82499  -0.60476
H     1.46386  -4.02398   0.38083
H     1.57983  -3.60595  -1.36863
H    -1.19224   2.03742   3.23820
H    -1.62381   0.37910   3.69356
H    -3.45217   1.61662   2.44226
H    -3.00297   0.07759   1.69993
H    -1.78695   2.70871   0.69316
H    -3.40845   2.21674   0.24126
H    -2.48583   1.29993  -1.54725
H    -2.12596  -0.07347  -0.52395
H    -0.32238   0.98025  -2.17482
H    -0.08889   2.19186  -0.90162
