47
Generated by autodE on: 2022-06-23. E = -1272.858599 Ha
C     3.22593   2.07752   2.52111
N     2.32928   1.11722   1.90590
C     2.14400   1.07205   0.58624
O     2.72414   1.81723  -0.21567
C     1.11110   0.05409   0.08219
C     1.73768  -0.94129  -0.92738
O     1.52025  -2.15413  -0.84190
N     2.48652  -0.39404  -1.88785
C     2.98115  -1.17452  -3.00369
O     0.58393  -0.68855   1.17183
C    -0.83325  -0.63858   1.24749
C    -1.20276   0.25099   2.37075
N    -1.45203   0.94033   3.26916
C    -1.38314  -2.06400   1.58906
C    -0.37975  -3.12245   1.88312
O    -2.58579  -2.23130   1.62158
C    -1.32491  -0.07704  -0.12871
C    -2.61047   0.77555  -0.05334
N    -3.67578   0.18016   0.49994
O    -2.63816   1.91994  -0.50921
C    -1.50886  -1.21908  -1.16121
C    -1.30945  -0.71705  -2.55814
C    -0.64091   0.42239  -2.82488
N    -0.04399   1.22638  -1.87341
C     0.17237   2.63223  -2.17586
C    -0.12693   0.84044  -0.49634
H     3.26035   1.88765   3.60024
H     4.24182   1.98491   2.10826
H     2.88089   3.10962   2.35085
H     1.79463   0.47310   2.48068
H     2.62723   0.61384  -1.85327
H     3.57850  -2.03091  -2.65576
H     3.61045  -0.53472  -3.63406
H     2.14609  -1.56316  -3.61034
H    -0.89169  -4.07339   2.07494
H     0.33001  -3.20437   1.04680
H     0.21064  -2.81885   2.76375
H    -4.54199   0.70495   0.57868
H    -3.59820  -0.74478   0.92497
H    -0.79300  -2.02650  -0.93851
H    -2.50966  -1.65689  -1.04354
H    -1.70752  -1.30485  -3.38672
H    -0.52486   0.78103  -3.85105
H     0.97022   3.03345  -1.53888
H    -0.74228   3.23498  -2.02781
H     0.49004   2.73260  -3.22383
H    -0.22209   1.75112   0.10891
