20
Generated by autodE on: 2022-06-23. E = -457.715333 Ha
C    -3.10657  -0.62032  -0.25008
N    -1.83058   0.01392   0.03731
C    -1.80200   1.35340   0.44519
C    -0.65748   2.02333   0.65351
C     0.70587   1.40421   0.46768
C     0.57547  -0.03482  -0.00407
C     1.76324  -0.85901  -0.27916
N     2.96347  -0.25708  -0.08364
O     1.70500  -2.04277  -0.67002
C    -0.64353  -0.61652  -0.18624
H    -3.79400  -0.50969   0.60273
H    -2.94746  -1.69058  -0.43198
H    -3.58608  -0.17952  -1.14056
H    -2.78271   1.81184   0.58475
H    -0.71678   3.06517   0.97662
H     1.28199   1.45971   1.41423
H     1.30090   2.00371  -0.25135
H     3.80819  -0.78749  -0.26634
H     3.05113   0.70169   0.22788
H    -0.70780  -1.65100  -0.52743
