27
Generated by autodE on: 2022-06-23. E = -815.066394 Ha
C    -3.03777   2.82238   0.50378
N    -2.47211   1.52774   0.18478
C    -1.15917   1.29343   0.31496
O    -0.32011   2.14764   0.63135
C    -0.71012  -0.11043   0.10861
O     0.54193  -0.37671  -0.06790
C     1.65371   0.26367  -0.39044
C     1.69873   1.57424  -0.91733
N     1.84746   2.60340  -1.44631
C     2.88039  -0.53803  -0.34659
C     2.76811  -1.97246   0.09525
O     3.94876  -0.01714  -0.65908
C    -1.58186  -1.30777   0.30918
O    -2.81580  -1.17153   0.33813
N    -0.95299  -2.48817   0.42258
C    -1.64941  -3.74854   0.58349
H    -3.03594   3.01273   1.59058
H    -2.45693   3.62026   0.01935
H    -4.07177   2.85909   0.14028
H    -3.06624   0.70039   0.08729
H     2.12650  -2.53548  -0.60192
H     3.77008  -2.41868   0.11156
H     2.31279  -2.03973   1.09553
H     0.06080  -2.50514   0.38035
H    -1.43988  -4.41991  -0.26390
H    -1.33228  -4.24985   1.51066
H    -2.72760  -3.55962   0.63028
