27
Generated by autodE on: 2022-07-28. E = -815.065298 Ha
C     1.55860   3.54661   1.53468
N     1.33443   2.51756   0.53905
C     0.61026   1.42646   0.82806
O    -0.01277   1.25319   1.88364
C     0.60684   0.34122  -0.19151
O    -0.30242  -0.57667  -0.16853
C    -1.49946  -0.75991   0.36577
C    -2.26748   0.26448   0.96528
N    -3.02458   1.06569   1.40012
C    -2.09843  -2.07779   0.14066
C    -1.29127  -3.09579  -0.61895
O    -3.22524  -2.30703   0.57558
C     1.73267   0.08369  -1.13907
O     2.57049   0.97470  -1.35397
N     1.75365  -1.12375  -1.72518
C     2.73319  -1.49725  -2.72583
H     2.02209   4.41523   1.05168
H     2.21943   3.19394   2.34476
H     0.60368   3.85258   1.98492
H     1.95797   2.43020  -0.26781
H    -1.14077  -2.75470  -1.65684
H    -1.83379  -4.04920  -0.62351
H    -0.29660  -3.23129  -0.16724
H     0.99526  -1.77075  -1.53314
H     3.57580  -0.79742  -2.68641
H     3.09961  -2.51485  -2.52974
H     2.29896  -1.47144  -3.73881
