44
Generated by autodE on: 2022-06-20. E = -959.512665 Ha
C     0.29955   2.96354   0.24080
O    -0.42613   1.75033  -0.01655
C    -0.45970   0.85246   0.96327
O     0.01209   1.04334   2.08210
C    -1.08232  -0.49005   0.53748
C    -2.16675  -0.34500  -0.51481
C    -3.51142  -0.58538  -0.19847
C    -4.50760  -0.46597  -1.17386
C    -4.17562  -0.10336  -2.48009
C    -2.83631   0.13967  -2.80476
C    -1.84277   0.02054  -1.83283
N    -1.64300  -1.07279   1.80340
N    -0.86441  -1.86315   2.34596
C     0.39160  -2.01956   1.60408
C     0.11652  -1.48703   0.18785
C    -0.38465  -2.64619  -0.68821
C     1.28260  -0.80921  -0.48791
C     2.35500  -0.24675   0.10367
C     3.39052   0.45867  -0.63250
C     4.46480   1.09857  -0.11012
C     4.77555   1.17781   1.35805
C     5.44902   1.80262  -1.00146
H    -0.13147   3.49397   1.10104
H     1.35665   2.73314   0.43711
H     0.20396   3.56729  -0.66854
H    -3.78217  -0.86542   0.81834
H    -5.54902  -0.65816  -0.90462
H    -4.95294  -0.00993  -3.24219
H    -2.56133   0.42329  -3.82345
H    -0.80603   0.21541  -2.10523
H     0.69986  -3.07319   1.62235
H     1.14650  -1.44721   2.16147
H    -1.28146  -3.11714  -0.25953
H     0.40659  -3.40795  -0.75921
H    -0.62756  -2.31062  -1.70457
H     1.20379  -0.74531  -1.57894
H     2.45477  -0.29117   1.19079
H     3.26699   0.47749  -1.72186
H     4.83651   2.23293   1.67785
H     5.76759   0.73810   1.56286
H     4.03858   0.67114   1.99414
H     6.46634   1.39628  -0.85852
H     5.18453   1.71320  -2.06531
H     5.51010   2.87563  -0.74569
