23
Generated by autodE on: 2022-06-20. E = -351.521381 Ha
C    -3.54013   1.16133   0.64746
C    -2.55323   0.32956   0.24741
C    -2.85882  -1.03351  -0.31896
C    -1.15681   0.74578   0.36121
C    -0.07889   0.00476   0.00086
C     1.28776   0.46585   0.13718
C     2.41610  -0.21272  -0.19160
C     3.77110   0.40484   0.01002
C     2.43547  -1.59902  -0.77040
H    -4.59305   0.87516   0.57427
H    -3.31482   2.15024   1.05861
H    -3.94174  -1.21919  -0.34781
H    -2.46223  -1.13645  -1.34274
H    -2.38697  -1.82856   0.28207
H    -0.98778   1.74624   0.77745
H    -0.23983  -0.99373  -0.41461
H     1.40757   1.47351   0.55335
H     3.70805   1.41732   0.43505
H     4.32173   0.46105  -0.94628
H     4.38942  -0.21823   0.68105
H     1.43790  -2.03585  -0.90653
H     2.94651  -1.59672  -1.74947
H     3.02117  -2.27479  -0.12237
