21
Generated by autodE on: 2022-06-20. E = -607.966466 Ha
C     3.95987   0.00733  -0.81931
O     2.71482   0.57549  -0.39332
C     1.64251  -0.23542  -0.41770
O     1.69265  -1.39649  -0.78432
C     0.43063   0.44826   0.04736
N     0.60416   1.69632   0.43437
N     0.73553   2.76842   0.77135
C    -0.92634  -0.12503   0.14842
C    -1.25955  -1.33121  -0.49817
C    -2.55110  -1.85252  -0.39618
C    -3.53549  -1.18838   0.34039
C    -3.21305   0.01186   0.98185
C    -1.92489   0.53772   0.89064
H     4.23708  -0.84286  -0.17925
H     3.89442  -0.32820  -1.86456
H     4.70254   0.80819  -0.72577
H    -0.50554  -1.85789  -1.07840
H    -2.78755  -2.78963  -0.90615
H    -4.54416  -1.60081   0.41464
H    -3.96861   0.54444   1.56424
H    -1.69668   1.47118   1.40906
