44
Generated by autodE on: 2022-06-20. E = -959.462402 Ha. Imaginary frequency = -439.3 cm-1
C     1.36280   2.51855   1.33885
O     0.43327   1.42917   1.40145
C    -0.33412   1.22055   0.31514
O    -0.20208   1.86569  -0.71512
C    -1.26696   0.11283   0.50645
C    -2.48476  -0.11155  -0.27112
C    -3.48037  -0.99362   0.20594
C    -4.61511  -1.27220  -0.55308
C    -4.79068  -0.68383  -1.81048
C    -3.81300   0.19091  -2.29333
C    -2.67444   0.47936  -1.53958
N    -1.19668  -0.47756   1.74205
N    -0.69372  -1.39283   2.26212
C     0.37427  -2.41170   0.99351
C     0.36962  -1.83629  -0.28801
C    -0.58852  -2.36344  -1.32455
C     1.43872  -0.97967  -0.76865
C     2.46852  -0.46485  -0.04329
C     3.47897   0.39232  -0.61481
C     4.47718   1.03351   0.04844
C     4.68727   0.96158   1.53335
C     5.45202   1.90662  -0.68780
H     1.91334   2.49573   2.28614
H     2.05566   2.39718   0.49662
H     0.82341   3.47226   1.23944
H    -3.36980  -1.46326   1.18484
H    -5.37000  -1.95530  -0.15630
H    -5.67967  -0.90481  -2.40533
H    -3.93349   0.65799  -3.27395
H    -1.91859   1.15559  -1.93122
H     1.27835  -2.35461   1.60407
H    -0.21320  -3.32118   1.14367
H    -1.50192  -2.76895  -0.86778
H    -0.87911  -1.58945  -2.04987
H    -0.10726  -3.17913  -1.89472
H     1.38201  -0.71045  -1.82939
H     2.52828  -0.68750   1.02534
H     3.41000   0.54935  -1.69790
H     4.63338   1.97394   1.97125
H     3.95804   0.32749   2.05330
H     5.69954   0.58318   1.76099
H     6.48870   1.55991  -0.52653
H     5.41438   2.94257  -0.30509
H     5.25616   1.92818  -1.76984
