32
Generated by autodE on: 2022-05-26. E = -1228.141994 Ha
C     3.68314  -1.20301   1.48471
O     2.33698  -1.15216   0.97538
C     2.19110  -0.77374  -0.28080
O     3.08496  -0.53077  -1.06068
C     0.74477  -0.63245  -0.68035
O    -0.20121  -0.85867   0.37464
C    -1.35733  -0.70017  -0.41723
C    -2.62596  -1.05045   0.37092
C    -2.84233  -2.49170   0.68640
O    -3.35588  -0.14283   0.70911
O    -1.12901  -1.66339  -1.49403
C     0.21456  -1.65802  -1.70418
O     0.77780  -2.30632  -2.53707
C    -1.21493   0.69144  -1.04574
C    -1.41507   1.97789  -0.17359
O    -0.46352   2.84476  -0.82345
C     0.70733   2.06193  -0.53924
C     0.56024   1.86746   0.95855
F     1.58119   1.61777   1.77314
C    -0.75370   1.80980   1.18501
F    -1.40931   1.48889   2.29309
C     0.32252   0.73959  -1.28565
H     4.27589  -1.93582   0.92009
H     3.59344  -1.50655   2.53324
H     4.14677  -0.20952   1.40934
H    -3.69420  -2.60667   1.36775
H    -1.92597  -2.91596   1.12667
H    -3.02930  -3.04081  -0.25106
H    -1.80825   0.76774  -1.96269
H    -2.42523   2.39639  -0.17871
H     1.62783   2.54318  -0.88502
H     0.60830   0.80981  -2.34041
