19
Generated by autodE on: 2022-05-26. E = -722.000063 Ha
C     3.16786   2.47819  -0.14962
O     1.93137   1.75005  -0.13593
C     2.02235   0.42795   0.05884
O     3.07074  -0.17686   0.21688
C     0.73125  -0.22153   0.06633
O    -0.43798   0.50123  -0.11287
C    -1.43862  -0.31204  -0.03850
C    -2.86292   0.14426  -0.20335
C    -3.06592   1.59301  -0.49307
O    -3.73016  -0.69681  -0.09447
O    -1.09655  -1.53124   0.17458
C     0.41894  -1.57488   0.26354
O     0.96431  -2.62382   0.46037
H     2.89717   3.52591  -0.32343
H     3.82081   2.11559  -0.95668
H     3.68697   2.37501   0.81433
H    -2.62426   2.20201   0.31249
H    -4.13869   1.80022  -0.58563
H    -2.54228   1.86194  -1.42535
