13
Generated by autodE on: 2022-05-26. E = -506.057103 Ha
F    -0.43383  -2.07440   0.82999
C    -0.15852  -0.94572   0.18362
C     0.94194  -0.19515   0.16524
F     2.10780  -0.34082   0.78740
C     0.55167   1.06598  -0.62705
C    -0.46077   1.86771   0.23162
C    -1.56390   1.11540   0.25121
C    -1.20833  -0.13356  -0.59675
O    -0.34779   0.47023  -1.58563
H     1.37506   1.61484  -1.09716
H    -0.24907   2.81496   0.72593
H    -2.51098   1.27299   0.76559
H    -2.03120  -0.70621  -1.03860
