32
Generated by autodE on: 2022-05-26. E = -1228.056560 Ha. Imaginary frequency = -323.9 cm-1
C     3.57286  -0.29879   1.99329
O     2.28746  -0.63441   1.45141
C     2.24205  -0.89606   0.14386
O     3.21267  -0.95416  -0.59021
C     0.88216  -1.11915  -0.32244
O    -0.17724  -0.99201   0.52785
C    -1.26638  -1.22829  -0.18867
C    -2.60079  -1.44054   0.46703
C    -2.75668  -0.98754   1.88190
O    -3.48192  -1.93177  -0.21069
O    -0.96037  -1.92296  -1.29169
C     0.44752  -1.80921  -1.49516
O     0.97561  -2.24925  -2.48627
C    -1.49886   0.71512  -1.14350
C    -1.63386   1.93648  -0.18555
O    -1.00752   2.94947  -1.01254
C     0.25170   2.24685  -1.14840
C     0.58866   2.03945   0.32125
F     1.83015   1.99330   0.78533
C    -0.58244   1.82774   0.92415
F    -0.85431   1.50249   2.18079
C    -0.26629   0.91245  -1.73241
H     3.39659  -0.03588   3.04240
H     4.25421  -1.15915   1.92617
H     4.00523   0.55512   1.45335
H    -3.65448  -1.45213   2.30844
H    -1.86712  -1.22018   2.48338
H    -2.88313   0.10733   1.88949
H    -2.36154   0.26814  -1.63798
H    -2.64627   2.20960   0.12701
H     0.98777   2.79051  -1.74890
H     0.12785   0.45776  -2.63888
