39
Generated by autodE on: 2022-06-19. E = -1030.436415 Ha
C     2.87853   2.66158  -1.65010
N     1.93344   1.86246  -0.89383
C     2.27999   0.70040  -0.34193
O     3.41514   0.22054  -0.31874
C     1.11344  -0.08852   0.29804
C     1.57643  -0.53799   1.62987
N     1.91755  -0.84758   2.69357
O    -0.01416   0.74201   0.49238
C    -1.21021   0.16042  -0.00891
C    -1.63345   0.95737  -1.27955
C    -2.70894   0.38590  -2.14761
O    -1.07645   2.01149  -1.51933
C    -2.35926   0.37531   1.01157
C    -2.09302   1.33038   2.13183
O    -3.43212  -0.16264   0.81859
C    -0.88016  -1.32070  -0.28889
C    -1.15504  -2.23296   0.88692
O    -1.31531  -1.84907   2.02533
C     0.65117  -1.28777  -0.62788
C     1.40247  -2.58599  -0.32105
C     0.84791  -0.95479  -2.11481
H     3.05508   2.23691  -2.65244
H     3.84098   2.70877  -1.12223
H     2.48050   3.67774  -1.76204
H     0.93768   2.09180  -0.91790
H    -3.45341  -0.16810  -1.56259
H    -2.23190  -0.32630  -2.84269
H    -3.17564   1.18660  -2.73606
H    -1.26701   0.95635   2.75383
H    -1.77183   2.29987   1.71838
H    -3.00297   1.45242   2.73276
H    -1.42992  -1.72682  -1.14719
H    -1.18293  -3.31643   0.63846
H     2.47139  -2.44155  -0.53375
H     1.02695  -3.39501  -0.96377
H     1.31023  -2.90538   0.72605
H     1.91879  -0.92727  -2.35970
H     0.38070  -1.74507  -2.71865
H     0.41119   0.00667  -2.40892
