14
Generated by autodE on: 2022-06-19. E = -270.687345 Ha
C    -1.64519  -1.04870   0.03206
C    -0.93479   0.26941   0.11149
C    -1.82882   1.45438   0.31596
C     0.41036   0.43645   0.01184
C     1.38389  -0.62244  -0.18808
O     2.59342  -0.42340  -0.27387
H    -2.37586  -1.02239  -0.79419
H    -2.22997  -1.20660   0.95412
H    -0.98351  -1.91012  -0.11388
H    -2.41339   1.33211   1.24427
H    -2.56533   1.51864  -0.50376
H    -1.26827   2.39787   0.36784
H     0.83245   1.44454   0.08314
H     0.99270  -1.66163  -0.26568
