25
Generated by autodE on: 2022-06-19. E = -759.657870 Ha
C     3.77096  -1.36534   0.73192
N     2.87511  -0.24739   0.49555
C     1.55307  -0.37713   0.64870
O     0.98516  -1.40681   1.01385
C     0.74189   0.87331   0.47487
C     1.22401   2.12643   0.93066
N     1.67199   3.14726   1.27246
O    -0.53667   0.84753   0.24367
C    -1.27287  -0.08440  -0.37038
C    -0.65029  -0.89902  -1.41466
C    -1.49795  -1.83703  -2.22533
O     0.54741  -0.74388  -1.66925
C    -2.71040   0.09471  -0.12371
C    -3.11644   1.21505   0.80066
O    -3.53877  -0.66314  -0.62395
H     3.73687  -1.68256   1.78567
H     4.79263  -1.05605   0.48410
H     3.49116  -2.22561   0.10465
H     3.25940   0.63646   0.17257
H    -2.32841  -1.30520  -2.71083
H    -0.85808  -2.31516  -2.97830
H    -1.94711  -2.59820  -1.56972
H    -4.21184   1.25270   0.84938
H    -2.72058   2.17911   0.44537
H    -2.70627   1.04839   1.80942
