36
Generated by autodE on: 2022-06-18. E = -953.897604 Ha
C     0.45103   0.90847  -2.61018
O    -0.41072   1.33203  -1.55643
C    -0.24896   0.67623  -0.32844
C     1.18253   0.93751   0.20970
O     1.50160   2.10390   0.37839
C     2.10336  -0.18232   0.47374
C     3.44574   0.15153   1.04620
C     1.75245  -1.46864   0.18533
C     2.69886  -2.60050   0.42591
C     0.43869  -1.80955  -0.42351
O     0.26292  -2.88255  -0.97557
C    -0.70920  -0.81667  -0.30321
O    -1.58705  -1.11623  -1.36110
C    -2.83464  -0.43925  -1.45036
C    -1.42787  -0.92394   1.09748
C    -0.64444  -1.53189   2.26006
N    -1.84532   0.43952   1.43519
C    -1.22786   1.26557   0.68336
C    -1.42350   2.68706   0.76201
N    -1.58760   3.83558   0.80436
H     0.17732   1.50385  -3.49084
H     1.51140   1.09459  -2.37013
H     0.30811  -0.15891  -2.83962
H     4.24938  -0.16550   0.36141
H     3.60547  -0.39002   1.99264
H     3.54221   1.22796   1.22806
H     2.26954  -3.55472   0.10094
H     3.64936  -2.43585  -0.10728
H     2.94792  -2.66226   1.49834
H    -2.70816   0.64325  -1.60099
H    -3.47110  -0.61176  -0.56740
H    -3.34299  -0.86180  -2.32780
H    -2.32607  -1.54051   0.95124
H     0.24685  -0.94008   2.50863
H    -1.29344  -1.57090   3.14649
H    -0.33422  -2.55871   2.01807
