26
Generated by autodE on: 2022-06-18. E = -689.460855 Ha
C     2.62535   2.10242  -0.46815
O     1.24015   1.94031  -0.78940
C     0.51278   0.91503  -0.34723
C     0.87120  -0.09998   0.48892
O     2.10412  -0.18756   1.06969
C     2.96060  -1.21910   0.56829
C    -0.11636  -1.12907   0.87900
O     0.20793  -2.00802   1.67579
C    -1.49879  -1.08423   0.31370
C    -2.44712  -2.17014   0.71294
C    -1.86820  -0.07597  -0.51452
C    -3.24849   0.02110  -1.08709
C    -0.89210   0.98027  -0.88565
O    -1.19585   1.90232  -1.63005
H     3.21632   1.24882  -0.82939
H     2.76848   2.22943   0.61263
H     2.93834   3.01305  -0.99456
H     3.90022  -1.14720   1.13197
H     2.51972  -2.21543   0.71953
H     3.16568  -1.06639  -0.50445
H    -2.83091  -2.69762  -0.17585
H    -1.96234  -2.89626   1.37581
H    -3.32533  -1.74893   1.23021
H    -3.35202   0.90588  -1.72606
H    -3.48718  -0.87550  -1.68270
H    -4.00095   0.07427  -0.28313
