10
Generated by autodE on: 2022-06-18. E = -264.356291 Ha
C    -2.69330  -0.28167   0.39381
C    -1.63255  -0.14023  -0.64808
N    -0.45112   0.24140  -0.39368
C     0.65318   0.74887  -0.14226
C     1.79845   0.01171   0.21940
N     2.83488  -0.43459   0.52789
H    -3.04617  -1.32587   0.42854
H    -3.56029   0.34507   0.12594
H    -2.32454   0.00986   1.38645
H    -1.86115  -0.38021  -1.69527
