30
Generated by autodE on: 2022-07-27. E = -817.293846 Ha
C    -2.14000  -2.50530   2.34180
N    -1.44109  -1.55906   1.49981
C    -2.12073  -0.63927   0.78130
O    -3.35944  -0.56798   0.82076
C    -1.30346   0.27641  -0.05142
N     0.04192   0.21797  -0.13701
N     0.85384  -0.56532   0.46819
C     2.20959  -0.46741   0.14612
C     3.09794  -1.08342   1.04961
C     4.47231  -1.04086   0.82628
C     4.98243  -0.39497  -0.30557
C     4.10276   0.20070  -1.21735
C     2.72543   0.16489  -1.00509
C    -1.81982   1.36114  -0.90047
O    -1.06625   2.07971  -1.55465
O    -3.14140   1.50451  -0.91427
C    -3.66191   2.55446  -1.74200
H    -2.83725  -3.12790   1.75767
H    -1.40405  -3.15945   2.82552
H    -2.72688  -1.99485   3.12293
H    -0.42194  -1.56505   1.43103
H     0.39635   0.94675  -0.78826
H     2.68680  -1.58131   1.92976
H     5.15007  -1.51536   1.53947
H     6.05945  -0.36503  -0.48373
H     4.49232   0.68824  -2.11391
H     2.06627   0.60437  -1.75706
H    -3.27671   3.53128  -1.41569
H    -4.75056   2.51642  -1.62049
H    -3.39053   2.38769  -2.79443
