45
Generated by autodE on: 2022-05-31. E = -1204.953278 Ha
C    -3.69896  -2.39892   0.23204
C    -2.24479  -2.28116   0.54362
O    -1.57904  -3.15844   1.05960
C    -1.53217  -0.97989   0.18256
O    -2.46896  -0.00358  -0.39654
C    -1.84494   1.19524  -0.28029
O    -2.33158   2.23268  -0.64074
C    -0.52088   0.89405   0.47728
C     0.14492   2.10622   1.10809
C     0.74034   2.00615   2.47948
O     0.22036   3.11911   0.43506
N    -0.93892  -0.26320   1.30041
C    -1.85795   0.01047   2.41106
C     0.47697   0.15922  -0.52302
C     1.83917  -0.00535   0.11924
C     2.14341  -1.10103   0.94046
C     3.38831  -1.19755   1.56787
C     4.35077  -0.20078   1.38425
C     4.05909   0.89394   0.56570
C     2.81442   0.98996  -0.06061
C     0.52628   0.76835  -1.96622
C     1.42772  -0.15287  -2.78467
C     0.70050  -1.25618  -3.00168
C    -0.63565  -1.00701  -2.31010
O    -0.76980   0.42007  -2.46238
C    -0.34698  -1.14241  -0.78987
H    -4.25120  -1.60335   0.75832
H    -4.06935  -3.38765   0.52994
H    -3.86107  -2.23265  -0.84544
H     1.56321   2.72783   2.56598
H    -0.03500   2.27893   3.21550
H     1.08568   0.99032   2.70947
H    -2.21817  -0.94544   2.81501
H    -2.73250   0.62316   2.12786
H    -1.32025   0.52136   3.21692
H     1.39921  -1.87836   1.10977
H     3.60491  -2.05810   2.20524
H     5.32337  -0.27720   1.87591
H     4.80265   1.67956   0.41276
H     2.59982   1.85827  -0.68525
H     0.69251   1.84866  -2.01867
H     2.46695   0.04491  -3.04265
H     0.99716  -2.19113  -3.47690
H    -1.52114  -1.53318  -2.68194
H     0.18617  -2.06719  -0.55424
