23
Generated by autodE on: 2022-05-31. E = -538.683096 Ha
C    -2.98839  -0.25333   1.03094
C    -2.17533  -1.28413   0.78121
C    -1.44631  -0.90099  -0.52558
O    -2.49432  -0.18846  -1.20795
C    -2.73901   0.73990  -0.13062
C    -1.32047   1.31062   0.05526
C    -0.48870   0.27988  -0.18708
C     0.96285   0.17129  -0.07188
C     1.77011   1.32076   0.06953
C     3.15246   1.21033   0.19956
C     3.76572  -0.04987   0.19266
C     2.97996  -1.19655   0.05251
C     1.59331  -1.08875  -0.08207
H    -3.64504  -0.07218   1.88147
H    -1.98251  -2.18124   1.36864
H    -1.04180  -1.71402  -1.13714
H    -3.54071   1.44802  -0.36757
H    -1.08904   2.31593   0.40423
H     1.30315   2.30796   0.06916
H     3.75964   2.11272   0.30468
H     4.85023  -0.13409   0.29385
H     3.44756  -2.18407   0.04657
H     0.99463  -1.99544  -0.18670
