22
Generated by autodE on: 2022-05-31. E = -666.232492 Ha
C     3.48839   1.08498   0.04244
C     2.62389  -0.11411  -0.21066
O     3.06694  -1.20738  -0.52879
C     1.16632   0.11541  -0.04945
O     0.73787   1.33512   0.28618
C    -0.68167   1.32464   0.38035
O    -1.27683   2.34045   0.67457
C    -1.04340  -0.02077   0.06826
C    -2.37888  -0.58751   0.01361
C    -3.51805   0.35172   0.32325
O    -2.58496  -1.77055  -0.26983
N     0.13936  -0.71051  -0.18494
C     0.22370  -2.13181  -0.53938
H     3.33184   1.45541   1.06822
H     4.53913   0.80690  -0.10386
H     3.21233   1.90313  -0.64189
H    -3.41192   0.77105   1.33589
H    -3.51951   1.20426  -0.37374
H    -4.46349  -0.20001   0.24324
H    -0.23921  -2.72062   0.26008
H     1.27585  -2.39236  -0.66035
H    -0.33086  -2.29677  -1.46990
