42
Generated by autodE on: 2022-06-29. E = -1053.514254 Ha
C    -4.44472   2.30747  -0.58420
O    -3.30758   1.63000  -0.02309
C    -2.19336   1.62378  -0.74882
O    -2.07818   2.13706  -1.84079
C    -1.08676   0.90109  -0.03206
N     0.14796   0.72398  -0.79882
C     0.90407   0.13460   0.27012
C     2.36868  -0.06543   0.05040
C     2.84544  -0.35588  -1.23519
C     4.20546  -0.60455  -1.43843
C     5.09544  -0.56715  -0.36107
C     4.62009  -0.28145   0.92299
C     3.26138  -0.03450   1.13088
O     0.68876   1.11364   1.41169
C    -0.55334   1.59633   1.24227
O    -1.08901   2.37704   1.98973
C     0.05640  -1.08592   0.70289
C     0.08768  -2.35147  -0.17760
C    -0.80096  -3.39062   0.54712
C    -2.24661  -2.84236   0.32003
C    -2.00740  -1.55492  -0.50384
C    -0.81284  -1.99058  -1.37632
C    -1.39589  -0.54011   0.48552
H    -4.21055   3.36797  -0.75343
H    -5.24859   2.20684   0.15345
H    -4.73579   1.83735  -1.53414
H     0.54509   1.62162  -1.08627
H     2.15066  -0.38878  -2.07540
H     4.56983  -0.82747  -2.44383
H     6.15872  -0.76037  -0.52128
H     5.31081  -0.25047   1.76878
H     2.89222   0.18877   2.13273
H     0.29659  -1.31780   1.74756
H     1.10110  -2.70545  -0.40934
H    -0.67611  -4.38281   0.08935
H    -0.54388  -3.48049   1.61290
H    -2.77692  -2.63768   1.26187
H    -2.85544  -3.55352  -0.25732
H    -2.89758  -1.18163  -1.02857
H    -1.05324  -2.87275  -1.98997
H    -0.41454  -1.19898  -2.01650
H    -1.99467  -0.47350   1.40167
