25
Generated by autodE on: 2022-06-29. E = -780.623036 Ha
C    -4.45206   0.65854  -1.52378
O    -3.10003   0.47147  -1.09283
C    -2.92582  -0.01834   0.15592
O    -3.85513  -0.29606   0.90276
C    -1.53433  -0.16570   0.47902
N    -0.48113   0.15268  -0.38163
C     0.67551  -0.09321   0.19835
C     2.01218   0.09436  -0.32890
C     3.12044  -0.19644   0.48970
C     4.41189  -0.01536  -0.00110
C     4.61007   0.45395  -1.30381
C     3.51000   0.74210  -2.12076
C     2.21498   0.56444  -1.64174
O     0.46775  -0.56720   1.42311
C    -0.96385  -0.64213   1.67784
O    -1.35457  -1.05349   2.75067
H    -4.97360   1.37469  -0.87159
H    -4.39293   1.05447  -2.54451
H    -4.99792  -0.29655  -1.52135
H    -0.60617   0.52754  -1.32070
H     2.96140  -0.56051   1.50527
H     5.26885  -0.24135   0.63668
H     5.62380   0.59525  -1.68501
H     3.66307   1.10673  -3.13844
H     1.36583   0.78867  -2.28994
