42
Generated by autodE on: 2022-06-29. E = -1053.457496 Ha. Imaginary frequency = -483.5 cm-1
C    -4.41659   2.30364  -0.73436
O    -3.15814   2.09487  -0.07998
C    -2.14280   1.68915  -0.85472
O    -2.23330   1.51690  -2.06254
C    -0.93659   1.42115  -0.09931
N     0.23669   1.03776  -0.71124
C     1.00859   0.47045   0.26719
C     2.41463   0.08828   0.07430
C     2.85977  -0.33881  -1.18791
C     4.18126  -0.75119  -1.35864
C     5.06520  -0.75062  -0.27386
C     4.62104  -0.33330   0.98473
C     3.30065   0.08333   1.16274
O     0.67372   1.13642   1.43711
C    -0.61630   1.66466   1.28268
O    -1.20348   2.16427   2.22076
C    -0.00294  -1.24375   0.71705
C     0.03894  -2.30932  -0.37912
C    -0.70108  -3.54306   0.22149
C    -2.18143  -3.06045   0.30021
C    -2.10809  -1.60537  -0.27498
C    -1.03419  -1.80221  -1.36306
C    -1.35078  -0.83613   0.78485
H    -4.32932   3.08517  -1.50301
H    -5.11378   2.62097   0.04968
H    -4.76856   1.37136  -1.19977
H     0.25792   0.72334  -1.67714
H     2.17525  -0.35282  -2.03821
H     4.52153  -1.07773  -2.34374
H     6.09887  -1.07647  -0.41004
H     5.30690  -0.33054   1.83483
H     2.95349   0.40887   2.14408
H     0.58092  -1.38642   1.62997
H     1.03357  -2.52800  -0.78883
H    -0.60051  -4.40989  -0.44882
H    -0.29144  -3.82702   1.20179
H    -2.58717  -3.07846   1.32217
H    -2.84002  -3.67334  -0.33401
H    -3.07541  -1.18705  -0.58200
H    -1.32373  -2.56632  -2.09974
H    -0.77652  -0.88859  -1.90810
H    -1.84233  -0.47248   1.68842
