68
Generated by autodE on: 2022-06-10. E = -1668.755243 Ha
C     0.49976  -4.65211  -1.80527
N     0.13798  -3.24865  -1.78761
C     1.05459  -2.30748  -1.51777
O     2.26444  -2.55034  -1.45630
C     0.51859  -0.85374  -1.41876
C     0.98123  -0.21337  -2.74127
O    -0.92373  -0.89589  -1.45038
C    -1.54223  -0.42194  -0.28261
C    -2.03232  -1.65035   0.54375
O    -2.14628  -2.74374   0.02760
O    -2.41133  -1.37071   1.77360
C    -2.92318  -2.45976   2.56411
C    -2.88637   0.21556  -0.71932
O    -3.36077   0.08083  -1.82214
O    -3.45442   0.87596   0.27833
C    -4.64602   1.61990  -0.02928
C    -0.52645   0.62729   0.32865
C    -0.64295   0.79679   1.84783
C    -0.84392   1.98748  -0.36570
C    -1.05508   3.15402   0.39460
C    -1.39563   4.36993  -0.19947
C    -1.55316   4.46392  -1.58416
C    -1.37864   3.31523  -2.35489
C    -1.03655   2.10061  -1.75287
C     0.89855  -0.05616  -0.08471
C     1.34452  -0.97323   1.08958
C     2.23960  -0.47973   2.05671
C     2.57698  -1.22071   3.19122
C     2.03243  -2.48999   3.39812
C     1.15160  -3.00387   2.44572
C     0.81848  -2.25601   1.31322
C     2.06763   0.91909  -0.33411
C     2.08985   2.25686   0.07877
C     3.22587   3.05666  -0.09922
C     4.37839   2.53238  -0.68221
C     4.38673   1.18696  -1.06540
C     3.25368   0.39575  -0.88336
H     1.33247  -4.82692  -2.50117
H    -0.36632  -5.24142  -2.13103
H     0.81270  -5.00021  -0.80569
H    -0.83442  -2.99415  -1.62248
H     0.31407  -0.57829  -3.53548
H     2.00229  -0.52188  -2.98529
H     0.95489   0.87897  -2.71815
H    -3.80049  -2.90400   2.07457
H    -2.14167  -3.22123   2.69679
H    -3.19911  -2.02133   3.52912
H    -4.41717   2.38542  -0.78465
H    -4.95553   2.09056   0.91004
H    -5.43191   0.94887  -0.40220
H     0.13137   1.48521   2.20947
H    -0.51503  -0.14544   2.37918
H    -1.62495   1.20227   2.11505
H    -0.94296   3.13694   1.47581
H    -1.54084   5.24940   0.43230
H    -1.81893   5.41467  -2.05179
H    -1.51669   3.35023  -3.43810
H    -0.96283   1.22879  -2.39078
H     2.67550   0.51050   1.94029
H     3.27190  -0.79531   3.91922
H     2.29456  -3.07090   4.28529
H     0.71448  -3.99695   2.57313
H     0.13271  -2.71585   0.61254
H     1.23337   2.70401   0.56729
H     3.19988   4.09708   0.23369
H     5.26401   3.15649  -0.82340
H     5.28562   0.74491  -1.50235
H     3.28726  -0.65835  -1.15633
