39
Generated by autodE on: 2022-06-10. E = -811.453532 Ha
C     1.58294   2.24246   0.71446
C     1.07334   0.89432   0.27246
C    -0.24765   0.57837   0.18064
C    -1.32989   1.48699   0.65442
C    -1.31429   2.03613   1.94907
C    -2.35092   2.86331   2.38935
C    -3.42434   3.15750   1.54311
C    -3.45792   2.60985   0.25571
C    -2.42637   1.77629  -0.17965
C    -0.72364  -0.70231  -0.42029
C    -1.67540  -1.48879   0.25335
C    -2.12662  -2.69229  -0.29288
C    -1.64892  -3.12366  -1.53492
C    -0.72043  -2.33835  -2.22644
C    -0.26364  -1.13973  -1.67492
C     2.13510  -0.10495  -0.04227
C     2.13982  -1.36237   0.58895
C     3.13279  -2.30222   0.30832
C     4.14323  -2.00501  -0.61256
C     4.15675  -0.75517  -1.23970
C     3.16806   0.18865  -0.94998
H     2.37551   2.58944   0.03235
H     0.79661   3.00659   0.74421
H     2.04322   2.18046   1.71571
H    -0.48788   1.79803   2.62149
H    -2.32225   3.27454   3.40142
H    -4.23484   3.80457   1.88694
H    -4.29434   2.83144  -0.41176
H    -2.46297   1.34540  -1.18278
H    -2.05425  -1.15612   1.22244
H    -2.85565  -3.29602   0.25332
H    -2.00443  -4.06295  -1.96523
H    -0.35230  -2.65911  -3.20415
H     0.45792  -0.53049  -2.22159
H     1.35249  -1.60063   1.30649
H     3.11853  -3.27179   0.81231
H     4.91870  -2.74152  -0.83608
H     4.94130  -0.51295  -1.96084
H     3.18569   1.15732  -1.45438
