48
Generated by autodE on: 2022-05-31. E = -1177.274834 Ha
C    -4.73504  -0.88338   1.52934
O    -3.62843  -1.02349   0.62562
C    -2.49928  -0.38776   0.95152
O    -2.37867   0.26446   1.96874
C    -1.37524  -0.68633  -0.01999
C    -1.80380  -1.03366  -1.46834
C    -2.65237   0.12579  -2.04206
C    -1.60807   1.25668  -2.26441
C    -0.29026   0.61541  -1.78161
C    -0.48072  -0.84114  -2.23572
C    -0.35659   0.50195  -0.24249
F    -0.77324   1.70870   0.28849
C     0.96870   0.01416   0.45127
C     1.14822   0.48854   1.92845
C     1.70968  -0.53752   2.87524
O     0.95186   1.63869   2.26443
C     2.23890   0.45716  -0.26064
C     3.13686  -0.48133  -0.78148
C     4.29480  -0.05489  -1.44079
C     4.56488   1.30826  -1.58153
C     3.67068   2.24853  -1.05659
C     2.51624   1.82683  -0.39654
O     0.86492  -1.39542   0.41011
C    -0.48875  -1.76990   0.68113
C    -0.71006  -3.21059   0.28450
H    -4.46724  -1.26517   2.52493
H    -5.03176   0.17209   1.60960
H    -5.55114  -1.47595   1.10054
H    -2.28220  -2.01538  -1.55284
H    -3.10933  -0.18946  -2.99144
H    -3.46858   0.42568  -1.37241
H    -1.51307   1.51427  -3.32885
H    -1.84754   2.17718  -1.71815
H     0.60957   1.13061  -2.13291
H     0.32676  -1.51532  -1.92961
H    -0.61460  -0.91532  -3.32496
H     1.97486  -0.04508   3.81948
H     2.59599  -1.01538   2.43074
H     0.97820  -1.33577   3.07188
H     2.92654  -1.54490  -0.67492
H     4.98816  -0.79593  -1.84561
H     5.46940   1.63930  -2.09707
H     3.87294   3.31693  -1.16201
H     1.82150   2.56188   0.01219
H    -0.66139  -1.67565   1.76669
H    -1.75264  -3.49275   0.49187
H    -0.05289  -3.86057   0.88145
H    -0.49959  -3.38474  -0.77935
