23
Generated by autodE on: 2022-05-31. E = -600.129003 Ha
C     3.58883  -0.51059   0.65274
O     2.19942  -0.73392   0.38954
C     1.50113   0.31142  -0.09572
O     2.01043   1.40043  -0.31232
C     0.10029  -0.03118  -0.31481
C    -0.91666   0.83280  -0.53023
F    -0.84375   2.15295  -0.62859
C    -2.23084   0.11065  -0.45307
C    -2.40456  -0.26181   1.06153
C    -1.27166  -1.30104   1.30318
C    -0.57546  -1.38308  -0.09093
C    -1.79399  -1.25321  -1.03127
H     4.11893  -0.22959  -0.26936
H     3.98111  -1.45883   1.03877
H     3.71988   0.28517   1.40093
H    -3.08183   0.63182  -0.90700
H    -3.39971  -0.70494   1.21031
H    -2.32791   0.62392   1.70757
H    -1.68276  -2.28223   1.58289
H    -0.56467  -0.99304   2.08618
H     0.07745  -2.25169  -0.23106
H    -2.54694  -2.04041  -0.87814
H    -1.51544  -1.20051  -2.09364
