25
Generated by autodE on: 2022-05-31. E = -577.044225 Ha
C    -3.17905  -1.43694  -1.87918
C    -2.24721  -0.38196  -1.47890
O    -1.35712  -0.62829  -0.60531
C    -0.53406   0.34028  -0.01289
C    -1.11492   1.56279   0.42397
C    -2.62802   1.75232   0.43154
O    -0.42359   2.49425   0.90892
C     0.81528  -0.15737   0.20077
C     1.79443   0.58395   0.90932
C     3.07496   0.07062   1.11217
C     3.43367  -1.19051   0.62304
C     2.48174  -1.93216  -0.08490
C     1.20053  -1.42664  -0.30160
H    -2.91963  -2.40010  -1.42094
H    -4.20041  -1.14318  -1.57108
H    -3.20239  -1.51042  -2.97987
H    -2.28704   0.62351  -1.91366
H    -3.21442   0.82110   0.42003
H    -2.86489   2.30263   1.35426
H    -2.95430   2.37634  -0.41554
H     1.52945   1.56698   1.28962
H     3.80514   0.66949   1.66333
H     4.43943  -1.58529   0.78407
H     2.74085  -2.91663  -0.48356
H     0.48570  -2.02178  -0.87074
