48
Generated by autodE on: 2022-05-31. E = -1177.184622 Ha. Imaginary frequency = -127.1 cm-1
C    -4.59260  -1.77686   1.41666
O    -3.57323  -1.38993   0.48711
C    -2.64811  -0.51885   0.93196
O    -2.66348  -0.07680   2.07293
C    -1.65546  -0.21611  -0.09502
C    -1.75211  -0.65501  -1.55748
C    -2.67716   0.39576  -2.24803
C    -1.81094   1.68968  -2.22142
C    -0.47738   1.21291  -1.54351
C    -0.37744  -0.22077  -2.09936
C    -0.87383   0.91783  -0.12583
F    -0.89036   1.88922   0.78676
C     1.48667  -0.08882   0.77892
C     1.34036   0.63929   2.01761
C     0.64734   0.01378   3.20925
O     1.80082   1.78899   2.14389
C     2.48751   0.22368  -0.24994
C     3.03882  -0.80327  -1.05126
C     3.97065  -0.52010  -2.04861
C     4.38423   0.79572  -2.28518
C     3.84517   1.82245  -1.50513
C     2.91060   1.54778  -0.50432
O     0.98362  -1.35352   0.61002
C    -0.09447  -1.91380   1.03059
C    -0.43844  -3.24148   0.48746
H    -4.14745  -2.26196   2.29753
H    -5.17540  -0.90192   1.73923
H    -5.23736  -2.48345   0.88118
H    -2.04114  -1.70066  -1.71080
H    -2.89803   0.08447  -3.27979
H    -3.63217   0.50619  -1.71571
H    -1.58819   2.05237  -3.23524
H    -2.27713   2.51301  -1.66194
H     0.37872   1.88556  -1.66525
H     0.45881  -0.79786  -1.69446
H    -0.33174  -0.23652  -3.19770
H     0.97326   0.56370   4.10227
H     0.87856  -1.05496   3.33375
H    -0.44441   0.12440   3.11785
H     2.73392  -1.83654  -0.88397
H     4.38008  -1.33887  -2.64591
H     5.11313   1.01609  -3.06845
H     4.14709   2.85837  -1.68035
H     2.49163   2.35780   0.08560
H    -0.59688  -1.52357   1.91193
H    -1.53290  -3.33813   0.42606
H    -0.08351  -4.03322   1.17381
H     0.01502  -3.39854  -0.50065
