31
Generated by autodE on: 2022-06-17. E = -743.260231 Ha
C     3.40347  -1.72412  -0.99985
N     2.20050  -1.16413  -0.41512
C     1.56834  -0.12002  -0.95826
O     1.93695   0.44983  -1.99238
C     0.31620   0.38203  -0.23536
C     0.58789   1.88049   0.11810
C     1.81051   2.16415   0.93963
O    -0.16674   2.75034  -0.26253
N     0.07675  -0.31615   1.04262
C    -1.19095  -0.44345   1.17544
C    -1.74689  -1.06615   2.34851
N    -2.23614  -1.56360   3.27715
C    -2.05432   0.10323   0.05828
C    -3.32455  -0.69047  -0.22485
C    -0.98861   0.21245  -1.06932
C    -0.95953  -1.00609  -1.98952
H     4.23986  -1.00764  -0.95904
H     3.23626  -1.99186  -2.05403
H     3.68244  -2.62658  -0.44299
H     1.84228  -1.52834   0.46256
H     1.91654   1.43626   1.75580
H     2.69701   2.06332   0.29139
H     1.77088   3.18862   1.33132
H    -2.33877   1.12347   0.37099
H    -3.85465  -0.26500  -1.08961
H    -4.00429  -0.64500   0.63982
H    -3.11098  -1.74837  -0.43500
H    -1.15810   1.11845  -1.66227
H    -0.17331  -0.89650  -2.74919
H    -0.77360  -1.93735  -1.43254
H    -1.91701  -1.11247  -2.51853
