19
Generated by autodE on: 2022-06-17. E = -585.858066 Ha
C     2.67274  -2.59149   1.06144
N     1.39603  -2.11779   0.56236
C     1.13917  -0.79906   0.46701
O     1.97551   0.05443   0.79694
C    -0.18788  -0.35784  -0.05285
N    -0.29226   0.95151  -0.14585
C    -0.44783   2.10922  -0.25150
C    -0.61735   3.45028  -0.37395
N    -0.76282   4.60728  -0.47938
C    -1.40869  -1.07595  -0.47684
C    -1.45534  -2.58026  -0.41894
O    -2.37935  -0.43167  -0.87257
H     2.86190  -2.22621   2.08297
H     3.50463  -2.25391   0.42292
H     2.65874  -3.68798   1.07423
H     0.70830  -2.79883   0.27033
H    -1.25312  -2.94761   0.59928
H    -2.45658  -2.90828  -0.72523
H    -0.71488  -3.02026  -1.10672
