22
Generated by autodE on: 2022-06-01. E = -2999.170020 Ha
C     3.08531  -0.08341   1.42703
C     2.08141   0.16654   0.32904
O     2.42609   0.24884  -0.84608
C     0.67490   0.31247   0.74488
C    -0.44721   0.24843  -0.01542
Br   -0.61048  -0.04688  -1.86385
C    -1.66032   0.24231   0.88769
C    -1.64338  -1.15472   1.59355
C    -0.38400  -1.07272   2.50107
C     0.17231   0.35271   2.19147
C    -1.13838   1.14704   2.02295
H     2.78147  -0.94360   2.04478
H     4.07655  -0.26334   0.99086
H     3.13174   0.79012   2.09810
H    -2.60907   0.50430   0.40577
H    -1.60253  -1.97630   0.86455
H    -2.56278  -1.27341   2.18504
H    -0.65143  -1.14976   3.56529
H     0.35666  -1.85436   2.28136
H     0.89426   0.73078   2.92386
H    -0.97549   2.18650   1.70312
H    -1.77970   1.12458   2.91683
