15
Generated by autodE on: 2022-06-01. E = -661.541421 Ha
C    -3.78622  -0.04354   0.46636
O    -2.37733   0.22714   0.40267
C    -1.61163  -0.73394  -0.12282
O    -2.02465  -1.80205  -0.54141
C    -0.20781  -0.37588  -0.14674
O     0.22736   0.84398   0.34034
C     1.51204   0.89557   0.20707
C     2.25127   2.03610   0.61755
N     2.86887   2.96194   0.94803
O     2.03584  -0.14955  -0.31950
C     0.88083  -1.12745  -0.61268
O     1.13108  -2.18272  -1.11120
H    -3.97964  -0.93345   1.08244
H    -4.19356  -0.20076  -0.54272
H    -4.24060   0.84175   0.92536
