37
Generated by autodE on: 2022-06-01. E = -3660.691629 Ha. Imaginary frequency = -344.3 cm-1
C     4.44321   1.54839   1.57793
O     3.48315   0.71388   0.90755
C     2.49650   0.22287   1.65146
O     2.36673   0.39247   2.84767
C     1.55564  -0.53323   0.81994
O     0.49861  -1.14212   1.40962
C    -0.22025  -1.67188   0.42024
C    -1.27696  -2.58333   0.71101
N    -2.17976  -3.28710   0.90456
O     0.55120  -1.88111  -0.65595
C     1.73953  -1.11371  -0.48721
O     2.58603  -1.06451  -1.33407
C    -1.31488   0.17053  -0.27389
Br   -1.89848  -0.52049  -1.96389
C    -2.43480   0.56502   0.70212
C    -2.02937   0.30850   2.17547
C    -0.86783   1.30971   2.40046
C    -0.75267   2.02987   1.03155
C    -2.25554   2.10710   0.63665
C    -0.27854   1.11498  -0.10971
C     0.70989   1.56217  -1.12920
C     1.52042   2.79253  -0.81522
O     0.84028   0.96783  -2.19171
H     5.13860   1.88446   0.80136
H     3.93838   2.40791   2.04079
H     4.97526   0.97228   2.34802
H    -3.41144   0.15364   0.42591
H    -2.89458   0.54635   2.81025
H    -1.75947  -0.73182   2.38942
H    -1.13448   2.06315   3.15520
H     0.06324   0.83977   2.72638
H    -0.20185   2.97333   1.08077
H    -2.87009   2.65145   1.37004
H    -2.42418   2.51890  -0.36876
H     1.93188   2.75830   0.20304
H     2.33138   2.88314  -1.54889
H     0.87508   3.68448  -0.88027
