47
Generated by autodE on: 2022-10-08. E = -1335.027268 Ha
C    -3.06551  -2.34390   2.21794
N    -2.38598  -1.55585   1.21076
C    -1.79288  -0.39933   1.52126
O    -1.75743   0.03873   2.68119
C    -1.13211   0.38272   0.34551
C    -2.23371   1.21916  -0.33550
O    -3.42043   0.95906  -0.29541
O    -1.73411   2.24783  -1.01863
C    -2.65545   2.99075  -1.83056
C    -0.50443  -0.57636  -0.72270
C    -1.49009  -1.04726  -1.81585
O    -2.25378  -2.01197  -1.50993
O    -1.49566  -0.44160  -2.91197
C     0.69010   0.19916  -1.24106
C     1.71921  -0.65251  -2.00490
O     2.50811  -0.02962  -2.76961
O     1.71642  -1.89658  -1.81345
C     1.22566   0.94914   0.01732
C     1.88578   2.26876  -0.40758
C     2.21756   0.09107   0.83047
C     3.54149  -0.10572   0.39873
C     4.42937  -0.89571   1.13293
C     4.01579  -1.50709   2.32128
C     2.70464  -1.31653   2.76379
C     1.81814  -0.52430   2.02588
N    -0.00740   1.16947   0.78477
C    -0.18272   2.35904   1.58030
H    -3.90963  -1.79197   2.66444
H    -3.45206  -3.25959   1.75221
H    -2.38289  -2.62546   3.03594
H    -2.39897  -1.86164   0.21951
H    -2.07077   3.79391  -2.29311
H    -3.46289   3.41120  -1.21491
H    -3.08100   2.33449  -2.60347
H    -0.14476  -1.46732  -0.19307
H     0.33491   0.96920  -1.93702
H     2.67583   2.07171  -1.14301
H     2.32864   2.80392   0.44517
H     1.14139   2.91963  -0.88809
H     3.88382   0.34741  -0.53147
H     5.45191  -1.03530   0.77253
H     4.71067  -2.12432   2.89615
H     2.36580  -1.78433   3.69196
H     0.79931  -0.36890   2.38042
H    -0.20792   3.29612   0.99071
H    -1.12314   2.28620   2.13884
H     0.62500   2.45559   2.32697
