37
Generated by autodE on: 2022-10-08. E = -879.933656 Ha
C     1.92270   3.30248   0.78571
N     1.78807   1.86952   0.66270
C     1.00898   1.30820  -0.30010
O     0.28307   2.02025  -1.03300
C     1.05801  -0.14151  -0.42404
C     1.87184  -0.99892   0.35460
O     2.71977  -0.65993   1.19917
O     1.62837  -2.32732   0.12212
C     2.44535  -3.25790   0.82921
N     0.18797  -0.70779  -1.40710
C     0.81005  -1.33504  -2.58302
C    -1.10070  -0.46950  -1.38674
C    -1.92567  -0.71963  -2.60375
C    -1.75956  -0.00459  -0.15011
C    -2.68966   1.04572  -0.19625
C    -3.33232   1.46579   0.97018
C    -3.07279   0.82336   2.18374
C    -2.16465  -0.24199   2.22990
C    -1.50097  -0.64832   1.07435
H     2.49496   3.53117   1.69455
H     0.93759   3.78793   0.86460
H     2.44634   3.75772  -0.07474
H     2.42078   1.24051   1.15451
H     2.31149  -3.15885   1.91711
H     2.12013  -4.25503   0.50632
H     3.51021  -3.11873   0.58725
H     0.24045  -2.21687  -2.90168
H     1.82795  -1.63094  -2.31696
H     0.84936  -0.60637  -3.40720
H    -1.47203  -0.25844  -3.49420
H    -1.98558  -1.80529  -2.79157
H    -2.94502  -0.34286  -2.47074
H    -2.89115   1.55103  -1.14231
H    -4.04079   2.29597   0.92846
H    -3.58272   1.14657   3.09421
H    -1.97210  -0.75842   3.17288
H    -0.79726  -1.48043   1.10926
