47
Generated by autodE on: 2022-10-08. E = -1334.938491 Ha. Imaginary frequency = -307.0 cm-1
C    -1.44132  -2.58774   2.32292
N    -1.34477  -1.56137   1.30989
C    -0.89433  -0.32828   1.59291
O    -0.50072  -0.01437   2.72469
C    -0.97373   0.69604   0.48051
C    -2.36282   1.10470   0.26729
O    -3.31316   0.50456   0.77060
O    -2.56971   2.13983  -0.56304
C    -3.92002   2.38808  -0.95861
C    -0.48009  -0.58334  -1.68846
C    -1.70013  -0.00321  -2.34456
O    -2.78886  -0.63066  -2.16438
O    -1.57256   1.03651  -3.05297
C     0.80679  -0.10674  -1.89840
C     1.98256  -1.03715  -2.17631
O     3.05615  -0.49216  -2.55684
O     1.80520  -2.28311  -2.07005
C     1.37183   0.93299  -0.01374
C     2.47474   1.83678  -0.50815
C     1.87648  -0.11769   0.95332
C     2.56858   0.37754   2.07810
C     3.05281  -0.48017   3.06439
C     2.86281  -1.86119   2.94733
C     2.18888  -2.36298   1.83363
C     1.69887  -1.50065   0.84630
N     0.13429   1.49091   0.21642
C    -0.04765   2.89140  -0.20156
H    -2.16739  -2.32013   3.10972
H    -1.76191  -3.52542   1.85161
H    -0.46409  -2.74969   2.80465
H    -1.71240  -1.72995   0.38047
H    -3.87765   3.23576  -1.65319
H    -4.54735   2.64197  -0.09164
H    -4.33222   1.50525  -1.46685
H    -0.59476  -1.61398  -1.34380
H     0.87542   0.83655  -2.44716
H     2.16968   2.42884  -1.37969
H     2.82911   2.53010   0.27340
H     3.31405   1.20290  -0.81562
H     2.70726   1.45344   2.19721
H     3.57567  -0.06725   3.93064
H     3.23947  -2.53789   3.71816
H     2.03662  -3.43937   1.72332
H     1.18957  -1.92202  -0.01202
H    -0.22243   2.96882  -1.28343
H    -0.89748   3.31901   0.33107
H     0.84485   3.46235   0.07014
