31
Generated by autodE on: 2022-07-27. E = -651.950492 Ha
C    -1.69744   2.73907   2.47716
N    -1.20078   1.57599   1.77570
C    -0.02783   1.61652   1.07755
O     0.70206   2.64464   1.14355
C     0.35113   0.48864   0.25277
N     1.49836   0.77880  -0.47246
C     2.36751   0.05196  -1.13434
C     3.46144   0.75079  -1.87152
C     2.30514  -1.43336  -1.15077
C    -0.51270  -0.64918  -0.07480
C    -1.18097  -1.39003   0.92798
C    -2.04899  -2.43439   0.60327
C    -2.26702  -2.78930  -0.73194
C    -1.60981  -2.07347  -1.73976
C    -0.75498  -1.01911  -1.41988
H    -0.93555   3.13698   3.16409
H    -2.57816   2.45095   3.06644
H    -1.98975   3.55893   1.79565
H    -1.84895   0.82096   1.58566
H     1.72135   1.77987  -0.37418
H     4.44724   0.37358  -1.55069
H     3.42628   1.84014  -1.72395
H     3.38433   0.54729  -2.95466
H     1.62847  -1.81531  -1.93642
H     3.30697  -1.84069  -1.34883
H     1.93149  -1.82512  -0.19248
H    -0.99571  -1.15797   1.97853
H    -2.54584  -2.98733   1.40475
H    -2.93845  -3.61302  -0.98482
H    -1.77552  -2.33039  -2.78936
H    -0.27897  -0.45447  -2.22412
