51
Generated by autodE on: 2022-06-22. E = -1109.654158 Ha. Imaginary frequency = -373.9 cm-1
C    -3.14270   3.39659   1.82427
N    -2.78974   2.43905   0.79707
C    -1.60931   2.53924   0.12052
O    -0.95669   3.61375   0.14646
C    -1.12972   1.38813  -0.63469
C    -1.94430   0.18632  -0.88142
C    -2.47096  -0.60769   0.15970
C    -3.24588  -1.73803  -0.11350
C    -3.51097  -2.11612  -1.43235
C    -3.00126  -1.33735  -2.47899
C    -2.23684  -0.20422  -2.20890
N    -0.10081   1.70897  -1.50391
C     1.00853   0.93534  -1.72336
C     2.07386   1.60518  -2.55128
C     0.83998  -0.53707  -1.99177
C     1.83139   0.95270   0.23620
C     2.77821  -0.23344   0.32516
C     2.06186  -1.45433   0.87358
C     2.54626  -2.82373   0.65154
N     3.69722  -2.95192  -0.05704
O     1.95146  -3.83563   1.07706
C     0.96436  -1.29649   1.66637
N     0.38592  -0.08178   1.90332
C    -0.57849   0.09542   2.97682
C     0.76156   1.01436   1.14141
H    -4.16029   3.18401   2.17718
H    -2.45763   3.35524   2.69081
H    -3.11984   4.42164   1.42741
H    -3.22842   1.52707   0.84298
H    -2.26032  -0.35229   1.19537
H    -3.63357  -2.33416   0.71647
H    -4.11066  -3.00423  -1.64457
H    -3.21028  -1.61140  -3.51635
H     0.33908  -0.67902  -2.96509
H     0.11932   2.70490  -1.42752
H     1.85690   1.49668  -3.62850
H     3.05043   1.13456  -2.36518
H     2.14951   2.67907  -2.32057
H     1.82166  -1.02249  -2.05547
H    -1.85741   0.40307  -3.03216
H     0.24728  -1.04641  -1.22705
H     2.30409   1.91624   0.03443
H     3.64572   0.02203   0.96851
H     3.21447  -0.43923  -0.66543
H     4.06901  -3.88228  -0.21291
H     4.23121  -2.15536  -0.37922
H     0.49235  -2.15351   2.14936
H    -1.07947  -0.85792   3.19051
H    -0.08779   0.44774   3.90020
H    -1.33045   0.84013   2.68269
H     0.36060   1.96777   1.47279
