45
Generated by autodE on: 2022-06-19. E = -960.509794 Ha
C     4.11894   1.93493   2.16797
C     3.38094   1.49843   1.12716
C     3.67035   1.92937  -0.28658
C     2.25464   0.58836   1.36234
C     1.45814   0.07443   0.40972
C     0.29341  -0.82228   0.69232
C     0.43452  -2.25109   0.06030
C     1.86695  -2.66415  -0.28870
C    -0.21436  -3.32439   0.95412
C    -0.43165  -2.05862  -1.17469
C    -0.42622  -3.01584  -2.25166
N    -0.38774  -3.81082  -3.09780
N    -1.20344  -1.04049  -1.21193
C    -1.03080  -0.28593   0.03777
C    -2.26895  -0.54016   0.94629
C    -3.59586  -0.69426   0.26531
O    -2.14470  -0.56896   2.15524
C    -1.02967   1.22249  -0.20891
C    -0.91637   2.09708   0.88330
C    -0.86425   3.47694   0.68287
C    -0.92646   4.00259  -0.61255
C    -1.04605   3.13661  -1.70233
C    -1.10080   1.75311  -1.50223
H     3.89643   1.61808   3.19157
H     4.96066   2.61838   2.02488
H     4.52979   2.61330  -0.32748
H     2.79787   2.43839  -0.72923
H     3.88708   1.06062  -0.93027
H     2.05401   0.33204   2.40932
H     1.63513   0.32240  -0.64094
H     0.15488  -0.90405   1.77648
H     2.48741  -2.66653   0.61935
H     2.32849  -1.98331  -1.01730
H     1.87727  -3.68070  -0.71172
H    -1.24004  -3.05424   1.24353
H    -0.24795  -4.29403   0.43342
H     0.38226  -3.44556   1.87094
H    -4.40526  -0.59983   1.00076
H    -3.64100  -1.69334  -0.19792
H    -3.71256   0.04239  -0.54241
H    -0.86045   1.69471   1.89600
H    -0.77138   4.14480   1.54243
H    -0.88311   5.08276  -0.77025
H    -1.09658   3.53640  -2.71794
H    -1.19097   1.08135  -2.35533
