22
Generated by autodE on: 2022-06-19. E = -608.904693 Ha
C     3.13373  -0.52837  -0.32765
C     1.75346  -0.91649  -0.78703
O     1.57248  -1.74778  -1.66466
C     0.59955  -0.24535  -0.10855
N     0.91008   0.58756   0.82841
C     1.20737   1.25680   1.79217
C     1.52524   2.57902   2.05700
N     1.80591   3.64493   2.41715
C    -0.82956  -0.49933  -0.39395
C    -1.80014  -0.14107   0.56418
C    -3.15436  -0.36260   0.32242
C    -3.56992  -0.94054  -0.88225
C    -2.61598  -1.29199  -1.84090
C    -1.25663  -1.07607  -1.60599
H     3.87497  -1.08701  -0.91193
H     3.26069  -0.75338   0.74399
H     3.29726   0.55344  -0.45413
H    -1.49267   0.30980   1.50979
H    -3.88961  -0.08241   1.08012
H    -4.63170  -1.11306  -1.07236
H    -2.92990  -1.73744  -2.78781
H    -0.52511  -1.35302  -2.36040
