45
Generated by autodE on: 2022-06-19. E = -960.430749 Ha. Imaginary frequency = -318.4 cm-1
C     2.55384   2.52779   2.85080
C     2.50733   1.69987   1.78250
C     3.27548   2.00508   0.52222
C     1.69154   0.49193   1.82718
C     1.53877  -0.38751   0.79893
C     0.71432  -1.56097   0.86035
C     0.65059  -2.56129  -0.10763
C     1.56308  -2.54159  -1.31342
C     0.14777  -3.92628   0.30380
C    -1.20732  -1.94991  -1.28002
C    -1.69259  -2.90064  -2.18438
N    -1.95756  -3.78398  -2.90090
N    -1.60222  -0.85684  -0.90627
C    -1.40709   0.12173  -0.03825
C    -1.90478  -0.12605   1.33520
C    -2.76983  -1.34341   1.55900
O    -1.62662   0.63338   2.26343
C    -0.77988   1.35658  -0.52120
C    -0.57486   2.47739   0.30932
C     0.07743   3.61084  -0.17888
C     0.54011   3.65594  -1.49551
C     0.34325   2.54878  -2.33091
C    -0.30699   1.41514  -1.85232
H     1.99078   2.30617   3.76268
H     3.14941   3.44471   2.83695
H     3.82436   2.95319   0.61048
H     2.60051   2.07694  -0.34499
H     3.99968   1.20453   0.29663
H     1.15909   0.30014   2.76490
H     2.06131  -0.19070  -0.13994
H     0.19787  -1.74660   1.80685
H     2.57044  -2.89444  -1.02777
H     1.66851  -1.53749  -1.74693
H     1.19247  -3.21687  -2.09909
H    -0.59764  -3.86276   1.11011
H    -0.28650  -4.48505  -0.53899
H     0.99638  -4.52758   0.67732
H    -3.09780  -1.35262   2.60583
H    -2.21763  -2.27110   1.34721
H    -3.64678  -1.32612   0.89312
H    -0.91632   2.44805   1.33906
H     0.23352   4.46313   0.48624
H     1.05385   4.54392  -1.87056
H     0.70000   2.56976  -3.36315
H    -0.45344   0.56352  -2.51876
