37
Generated by autodE on: 2022-06-17. E = -917.045679 Ha
C     3.64096   2.16868   1.85354
O     2.40646   1.64056   1.33891
C     2.48222   0.49508   0.67286
O     3.50992  -0.12655   0.49282
C     1.14656   0.03599   0.15337
N     0.24133   0.89379  -0.12877
C    -0.92338   0.16429  -0.66338
C    -0.93835   0.33994  -2.12440
N    -0.93544   0.50238  -3.27243
C    -2.26025   0.72144  -0.15202
O    -3.30980   0.49722  -0.71549
O    -2.12888   1.40852   0.96715
C    -3.34102   1.88481   1.58144
C    -0.73125  -1.35755  -0.22648
C    -1.37275  -1.56163   1.15589
C    -1.36069  -2.34688  -1.20320
C     0.84686  -1.42512  -0.13576
C     1.51308  -1.80426  -1.47728
C     1.36433  -2.37665   0.95113
H     4.09759   1.45498   2.55403
H     3.37712   3.09736   2.37157
H     4.33959   2.37334   1.02983
H    -3.98272   1.03488   1.85334
H    -3.02639   2.43041   2.47766
H    -3.87791   2.55139   0.89261
H    -1.19075  -2.58715   1.50160
H    -0.97994  -0.86640   1.90992
H    -2.46335  -1.43317   1.09771
H    -1.15932  -3.37558  -0.86822
H    -0.98386  -2.24079  -2.22795
H    -2.45155  -2.20507  -1.22679
H     1.30823  -2.85889  -1.71127
H     2.60069  -1.67584  -1.39535
H     1.16124  -1.18724  -2.31491
H     0.93828  -3.37998   0.80121
H     1.10841  -2.03836   1.96425
H     2.45735  -2.46105   0.88844
