18
Generated by autodE on: 2022-06-17. E = -235.968071 Ha
C    -1.47939  -0.85965  -0.97894
C    -0.64276  -0.19440   0.08745
C    -1.41485  -0.01597   1.37264
C     0.64271   0.19428  -0.08744
C     1.41480   0.01658  -1.37280
C     1.47946   0.85911   0.97907
H    -1.83456  -1.84549  -0.62853
H    -0.96046  -1.01041  -1.93300
H    -2.38844  -0.26480  -1.18015
H    -0.85032   0.47158   2.17638
H    -2.32728   0.58027   1.19191
H    -1.76290  -0.99430   1.75026
H     0.85062  -0.47121  -2.17662
H     2.32782  -0.57881  -1.19233
H     1.76190   0.99536  -1.75013
H     0.96077   1.00943   1.93335
H     2.38850   0.26405   1.17977
H     1.83472   1.84511   0.62920
