38
Generated by autodE on: 2022-07-05. E = -1107.494458 Ha
C     2.19126   2.57499   0.29136
C     1.58660   2.14377   1.59177
O     2.15904   2.24310   2.65743
C     0.13089   1.57358   1.54677
C    -0.80464   2.78922   1.77776
C    -0.91105   3.32487   3.17364
O    -1.41081   3.26736   0.83824
C    -0.14189   0.92206   0.27268
C    -0.26004   0.02815  -0.53423
C    -0.29375  -1.34422  -1.02786
C    -1.74559  -1.86608  -1.30577
C    -2.84376  -0.85791  -1.41941
O    -1.92030  -3.06081  -1.41824
C     0.49358  -1.45329  -2.34479
F     0.63911  -2.72447  -2.74085
F    -0.12661  -0.79063  -3.33997
F     1.72422  -0.92681  -2.22655
C     0.38235  -2.21827   0.07329
C    -0.10138  -1.94496   1.51233
C     0.64614  -0.86942   2.35185
C    -0.05392   0.47568   2.63883
H     3.12188   3.12754   0.47231
H     2.39870   1.68409  -0.32338
H     1.47311   3.19001  -0.27373
H     0.07690   3.39255   3.65067
H    -1.40494   4.30477   3.15707
H    -1.51363   2.62727   3.77844
H    -3.77502  -1.34883  -1.72829
H    -2.98259  -0.36520  -0.44344
H    -2.56119  -0.06885  -2.13349
H     1.46960  -2.05990   0.01418
H     0.18669  -3.26555  -0.19432
H    -1.18500  -1.73861   1.51252
H     0.01126  -2.90090   2.04553
H     1.64366  -0.68494   1.91858
H     0.83782  -1.31470   3.34011
H     0.33862   0.88852   3.57755
H    -1.13318   0.30986   2.78008
