82
Generated by autodE on: 2022-07-05. E = -2162.932065 Ha. Imaginary frequency = -261.3 cm-1
C    -4.13477  11.94348   2.04943
N    -5.22471  12.06795   1.10425
C    -6.50836  12.18457   1.50598
O    -6.82016  12.40114   2.69033
C    -7.56363  12.03537   0.46577
C    -8.71456  12.96890   0.50266
C    -8.61043  14.19431   1.19452
C    -9.68341  15.08478   1.24003
C   -10.88676  14.77934   0.59434
C   -11.00135  13.57328  -0.10171
C    -9.92840  12.68695  -0.14719
O    -7.00512  11.59211  -0.67985
C    -7.45757  11.15926  -1.84296
C    -8.40441  11.98095  -2.61332
C    -8.34073  13.38488  -2.52016
C    -9.22019  14.18479  -3.25004
C   -10.18173  13.59826  -4.07711
C   -10.23543  12.20380  -4.19635
C    -9.34467  11.40274  -3.48451
C    -6.50801  10.24837  -2.49494
C    -6.41334  10.15242  -3.89746
C    -5.50636   9.27297  -4.48814
C    -4.66787   8.48324  -3.69486
C    -4.74211   8.58386  -2.29987
C    -5.65020   9.45438  -1.70351
C    -8.93291   9.51530  -0.22194
C    -8.55398   9.96537   0.87937
C    -8.35653   9.69809   2.33880
C    -6.85409   9.48292   2.63368
C    -6.33745   9.43008   4.04412
O    -6.09830   9.26656   1.70048
C    -9.09719  10.66951   3.28750
C   -10.38896  11.27598   2.80650
O    -8.73103  10.83822   4.43458
C    -9.03864   8.31386   2.69946
C    -8.58921   7.13326   1.82408
C    -9.69060   6.55476   0.93153
C   -10.49943   7.54862   0.09305
C    -9.74423   8.47740  -0.92722
C   -10.91909   9.07717  -1.75478
C   -11.86023  10.02242  -1.05963
O   -11.12681   8.71784  -2.89651
C    -8.86740   7.60621  -1.84951
F    -9.51398   6.49204  -2.23776
F    -8.47099   8.23212  -2.96647
F    -7.74540   7.20039  -1.22142
H    -4.05239  10.91761   2.44625
H    -4.28943  12.62932   2.89262
H    -3.19133  12.20300   1.55107
H    -5.06776  11.76632   0.14857
H    -7.68474  14.45531   1.70564
H    -9.57528  16.02827   1.78022
H   -11.72591  15.47783   0.63348
H   -11.93138  13.31519  -0.61336
H   -10.03697  11.74959  -0.67485
H    -7.59218  13.84805  -1.87697
H    -9.16003  15.27181  -3.16157
H   -10.88252  14.22401  -4.63451
H   -10.97818  11.73514  -4.84587
H    -9.38707  10.32173  -3.58687
H    -7.04746  10.77304  -4.53036
H    -5.44793   9.21087  -5.57737
H    -3.95975   7.79357  -4.16007
H    -4.09402   7.96785  -1.67183
H    -5.72874   9.50201  -0.61815
H    -7.02169   8.91724   4.73014
H    -5.35680   8.93543   4.03247
H    -6.22213  10.45996   4.41003
H   -10.20943  12.33984   2.59366
H   -10.78178  10.80440   1.90010
H   -11.12222  11.21721   3.62339
H   -10.12622   8.46106   2.63025
H    -8.82755   8.12090   3.75939
H    -7.73150   7.42590   1.20571
H    -8.22256   6.32621   2.47705
H    -9.25700   5.77611   0.28607
H   -10.43011   6.03996   1.56826
H   -11.05948   8.21898   0.75702
H   -11.24906   6.97849  -0.47708
H   -11.93997  10.93673  -1.66635
H   -11.56201  10.27732  -0.03867
H   -12.85569   9.55174  -1.04293
