22
Generated by autodE on: 2022-06-19. E = -591.887753 Ha
C     0.92845  -2.40727  -1.60414
N     0.70651  -1.37074  -1.05773
C     0.46079  -0.31046  -0.32736
C     1.61408   0.55449  -0.04223
O     1.58481   1.59765   0.59318
O     2.75334   0.06632  -0.57158
C     3.93987   0.83503  -0.34979
C    -0.91920  -0.08149   0.14216
C    -1.94739  -0.96603  -0.25223
C    -3.25826  -0.78552   0.18609
C    -3.58462   0.28385   1.02686
C    -2.57674   1.16725   1.42274
C    -1.26046   0.99297   0.99057
H     0.93562  -2.70434  -2.65966
H     4.15332   0.92159   0.72593
H     4.74950   0.29163  -0.85117
H     3.83816   1.84214  -0.78049
H    -1.72157  -1.80551  -0.91209
H    -4.03203  -1.48650  -0.13634
H    -4.61259   0.42627   1.36775
H    -2.81332   2.00770   2.08007
H    -0.48863   1.68847   1.30995
