23
Generated by autodE on: 2022-06-19. E = -351.521385 Ha
C    -3.63955  -1.02430   0.01181
C    -2.57302  -0.20755   0.15744
C    -2.73751   1.22573   0.59408
C    -1.22703  -0.71086  -0.10902
C    -0.07850   0.00250   0.00407
C     1.23255  -0.54798  -0.27323
C     2.42480   0.09326  -0.17883
C     3.70799  -0.61766  -0.50426
C     2.58711   1.52551   0.24485
H    -3.51654  -2.06454  -0.30518
H    -4.65755  -0.67443   0.20463
H    -2.33297   1.92020  -0.16092
H    -3.79572   1.47282   0.75896
H    -2.18630   1.42220   1.52873
H    -1.16191  -1.75867  -0.42618
H    -0.13436   1.04760   0.32044
H     1.24708  -1.59692  -0.59313
H     4.38941  -0.61379   0.36553
H     3.53977  -1.66082  -0.80976
H     4.24806  -0.09841  -1.31639
H     3.09304   2.10371  -0.54851
H     3.24084   1.58885   1.13273
H     1.63968   2.02643   0.48182
