45
Generated by autodE on: 2022-06-19. E = -943.414236 Ha. Imaginary frequency = -342.0 cm-1
C     3.34517  -1.78330   1.89929
C     2.87609  -1.30329   0.72476
C     3.07826  -2.06018  -0.56301
C     2.13941  -0.04593   0.68620
C     1.61650   0.52625  -0.43393
C     0.86593   1.74982  -0.43703
C     0.39441   2.42173  -1.55745
C    -0.07623   3.85074  -1.39115
C     0.83585   2.04365  -2.95473
C    -1.68305   1.57197  -1.79108
N    -1.89574   0.74338  -0.94907
C    -1.47448   0.09270   0.13526
C    -1.40706   0.88110   1.36127
O    -0.88637   0.52369   2.41329
O    -1.98134   2.09936   1.22711
C    -1.82297   3.00108   2.32335
C    -1.07380  -1.30743   0.00031
C    -0.54681  -2.05641   1.07407
C    -0.10953  -3.36838   0.88145
C    -0.18384  -3.97112  -0.37622
C    -0.70895  -3.24098  -1.45014
C    -1.14574  -1.93146  -1.26702
H     3.18851  -1.23890   2.83570
H     3.88923  -2.73027   1.95253
H     3.62806  -2.99651  -0.39255
H     3.64002  -1.45707  -1.29567
H     2.11123  -2.30766  -1.02939
H     1.98809   0.45692   1.64789
H     1.75351   0.01993  -1.39298
H     0.71251   2.22675   0.53586
H    -0.84420   4.12381  -2.13230
H    -0.48149   4.02930  -0.38402
H     0.77113   4.54386  -1.54528
H     0.91933   0.95711  -3.09450
H     1.82439   2.48840  -3.17103
H     0.13452   2.43112  -3.70946
H    -2.29310   2.09108  -2.53795
H    -2.33959   3.92395   2.03345
H    -0.75810   3.20986   2.50696
H    -2.27295   2.59074   3.23951
H    -0.46901  -1.59905   2.05617
H     0.30571  -3.91944   1.72867
H     0.16449  -4.99606  -0.52196
H    -0.77621  -3.69546  -2.44161
H    -1.54905  -1.37996  -2.11821
