25
Generated by autodE on: 2022-10-06. E = -573.235505 Ha
C     1.55838  -2.04063   0.59259
C     1.89953  -0.65089   0.10241
O     3.10137  -0.34182  -0.07858
C     0.80843   0.25281  -0.13365
C    -0.60253  -0.16969   0.09448
C    -1.21289   0.01776   1.34591
C    -2.52771  -0.40005   1.56727
C    -3.24940  -1.01541   0.53937
C    -2.65089  -1.21243  -0.70918
C    -1.33608  -0.79342  -0.92847
N     1.05379   1.53079  -0.57770
C    -0.11001   2.41563  -0.80795
N     2.18934   2.06537  -0.82476
H     0.99524  -1.99879   1.53745
H     2.48852  -2.60456   0.74259
H     0.92228  -2.56788  -0.13510
H    -0.64643   0.49589   2.14862
H    -2.98966  -0.24664   2.54548
H    -4.27734  -1.34323   0.71196
H    -3.20925  -1.69518  -1.51475
H    -0.86574  -0.94817  -1.90250
H    -0.66663   2.54158   0.12772
H     0.28428   3.37350  -1.15775
H    -0.76866   1.96674  -1.56026
H     2.89139   1.33304  -0.62072
