25
Generated by autodE on: 2022-10-13. E = -573.231865 Ha
C     0.26529   2.58333  -0.20710
C    -0.79056   1.66584  -0.79477
O    -1.69660   2.15150  -1.49141
C    -0.64314   0.25879  -0.48084
C     0.48574  -0.21787   0.36807
C     1.70018  -0.61401  -0.21750
C     2.76020  -1.05602   0.57794
C     2.61709  -1.11079   1.96813
C     1.41027  -0.72536   2.56054
C     0.35008  -0.28366   1.76495
N    -1.50004  -0.70580  -0.92605
C    -2.65925  -0.36618  -1.77901
N    -1.40980  -1.96376  -0.67255
H     0.04965   3.61411  -0.51785
H     1.27224   2.29807  -0.54837
H     0.27307   2.52395   0.89207
H     1.80953  -0.56755  -1.30366
H     3.70162  -1.35587   0.11157
H     3.44694  -1.45422   2.59042
H     1.29475  -0.76660   3.64618
H    -0.59337   0.02022   2.22472
H    -3.31763   0.32686  -1.24581
H    -3.16774  -1.31011  -1.99369
H    -2.31126   0.11613  -2.69776
H    -0.58018  -2.09673  -0.07902
