10
Generated by autodE on: 2022-10-06. E = -455.051699 Ha
O    -2.76738   0.48588  -0.96843
C    -1.95401  -0.14608  -0.23756
O    -2.24781  -1.07748   0.56128
C    -0.50197   0.27197  -0.35070
C     0.50192  -0.27187   0.35081
C     1.95400   0.14616   0.23767
O     2.24783   1.07740  -0.56137
O     2.76741  -0.48594   0.96835
H    -0.28301   1.07679  -1.06065
H     0.28286  -1.07667   1.06074
