35
Generated by autodE on: 2022-10-06. E = -1028.265726 Ha. Imaginary frequency = -447.5 cm-1
C     1.05691   2.96329  -0.35544
C     0.21894   1.98479  -1.14570
O    -0.60246   2.42224  -1.95454
C     0.36368   0.54224  -0.85544
C     1.57358   0.06632  -0.10355
C     2.50774  -0.74619  -0.77590
C     3.66963  -1.18871  -0.14177
C     3.93597  -0.81564   1.17889
C     3.02545   0.00211   1.85395
C     1.85677   0.43218   1.22295
C    -1.33899   0.14897   0.78617
C    -2.16436   1.37963   0.53835
O    -3.09223   1.33019  -0.32121
O    -1.86691   2.40570   1.22020
C    -1.72292  -1.13255   0.35540
C    -1.37858  -2.33604   1.21993
O    -2.30584  -3.14739   1.46961
O    -0.17863  -2.43323   1.61107
N    -0.50043  -1.59214  -1.13231
N    -0.23404  -0.40425  -1.66189
C    -1.08946  -0.08912  -2.80893
H     0.93347   3.95704  -0.80546
H     2.11963   2.68742  -0.32805
H     0.68782   3.00221   0.68020
H     2.31672  -1.03857  -1.81019
H     4.37400  -1.82150  -0.68727
H     4.84539  -1.15901   1.67751
H     3.21908   0.30260   2.88646
H     1.15957   1.06195   1.77342
H    -0.64424   0.21607   1.62164
H    -2.67183  -1.19887  -0.18327
H     0.20066  -1.78452  -0.40744
H    -2.03162   0.36445  -2.47531
H    -1.29162  -1.04320  -3.30939
H    -0.58232   0.59550  -3.49488
