18
Generated by autodE on: 2022-07-26. E = -344.269049 Ha
C    -0.09750  -2.20432  -0.98496
C    -0.77315  -1.25200  -0.06098
C    -2.03918  -1.62345   0.64460
N    -0.22890  -0.06176   0.12775
C    -0.89718   0.88201   1.04192
C     0.94798   0.35612  -0.49223
C     1.50196   1.60789  -0.27493
N     2.01269   2.66111  -0.12315
H    -0.00409  -1.77766  -2.00134
H     0.93340  -2.42409  -0.64908
H    -0.65303  -3.14723  -1.05049
H    -2.87247  -0.94453   0.39243
H    -1.92895  -1.59190   1.74277
H    -2.33624  -2.64129   0.36419
H    -0.96378   0.44351   2.04525
H    -1.90846   1.09989   0.67659
H    -0.32538   1.81215   1.09322
H     1.44184  -0.33287  -1.16924
