48
Generated by autodE on: 2022-06-03. E = -6088.321331 Ha
C    -1.03047  -0.73114   5.66023
N    -1.31343  -1.19514   4.31524
C    -0.73747  -0.64804   3.23884
O     0.02468   0.33069   3.32045
C    -1.15556  -1.24358   1.88570
N    -2.19750  -0.43346   1.25472
C    -1.63929   0.29552   0.11730
C    -1.53371   1.82416   0.32709
O    -2.08138   2.60509  -0.45857
N    -0.86963   2.23339   1.41897
C    -0.62065   3.63533   1.66870
C    -0.30925  -0.41457  -0.14074
C    -0.02020  -1.27095   0.87659
C     1.18858  -2.17586   1.14335
C     1.05111  -2.93006   2.48704
C     2.44626  -1.29006   1.31330
C     1.36225  -3.31106   0.05628
C     0.46942  -3.31123  -1.18828
C     1.00129  -2.45487  -2.33628
C     1.50744  -1.07023  -1.93785
C     0.47290  -0.09539  -1.38530
Br    1.48050   1.64398  -1.06603
Br   -0.76998   0.28462  -2.92265
H    -0.00934  -1.00559   5.97367
H    -1.12127   0.36308   5.71290
H    -1.74819  -1.18473   6.35451
H    -1.85648  -2.04404   4.19122
H    -1.51734  -2.26976   2.06539
H    -2.67720   0.17418   1.91378
H    -2.29554   0.20381  -0.75921
H    -0.40494   1.53982   2.01389
H     0.09454   4.05587   0.93940
H    -0.20153   3.75138   2.67678
H    -1.55060   4.22020   1.60164
H     1.92772  -3.58403   2.60576
H     1.03936  -2.25660   3.35366
H     0.15690  -3.56842   2.51830
H     3.33291  -1.92606   1.46153
H     2.32700  -0.65239   2.20143
H     2.64158  -0.61939   0.46971
H     1.18704  -4.26429   0.57375
H     2.41973  -3.33475  -0.25506
H     0.39057  -4.34826  -1.55243
H    -0.55595  -3.01308  -0.92053
H     0.24538  -2.36720  -3.13152
H     1.86727  -2.96975  -2.78527
H     1.96580  -0.58777  -2.81129
H     2.31124  -1.17647  -1.20171
