22
Generated by autodE on: 2022-06-03. E = -550.246076 Ha
C    -4.70943  -0.48311  -0.43671
N    -3.58737   0.36264  -0.09060
C    -2.31121  -0.08531  -0.15073
O    -2.03842  -1.26148  -0.47863
C    -1.27064   0.87023   0.19034
N    -0.02474   0.41523   0.12719
C     1.16324   0.96286   0.35446
C     2.31040   0.09140   0.16201
O     2.17531  -1.10050  -0.19307
N     3.52871   0.63601   0.38924
C     4.74724  -0.12535   0.21708
H    -4.69636  -0.76856  -1.50245
H    -4.70684  -1.41071   0.15722
H    -5.64075   0.05978  -0.23335
H    -3.75456   1.33429   0.14710
H    -1.45737   1.90305   0.48261
H     0.03159  -0.57890  -0.16033
H     1.22964   2.00534   0.66399
H     3.58654   1.61181   0.65942
H     5.60136   0.49974   0.50529
H     4.88496  -0.44559  -0.82940
H     4.74678  -1.03067   0.84529
