45
Generated by autodE on: 2022-06-21. E = -1109.124218 Ha
C     2.91931   1.65107  -4.00556
N     2.68813   1.34003  -2.60677
C     1.45794   1.17432  -2.11920
O     0.41559   1.27224  -2.77110
C     1.35309   0.85485  -0.63667
C     0.54380   1.81637   0.24098
C     0.09591   0.88501   1.41011
C     0.50410   1.40331   2.78719
C    -1.37616   0.53991   1.37858
C    -2.13911   0.47892   0.26929
C    -3.52995   0.06590   0.25417
C    -4.31872  -0.03889  -0.84331
C    -3.86854   0.26481  -2.24534
C    -5.74739  -0.48890  -0.72412
C     0.89104  -0.43377   0.97580
C     0.43839  -1.71885   1.62811
O     0.59480  -1.87260   2.84233
N    -0.12261  -2.61838   0.81342
C    -0.67103  -3.86444   1.31451
O     0.74155  -0.40259  -0.44768
C     2.39085  -0.12963   1.08189
O     3.21467  -0.45565   1.88945
O     2.64743   0.67229   0.01130
H     2.68067   0.79132  -4.65193
H     3.97455   1.91548  -4.14066
H     2.29226   2.49884  -4.31790
H     3.47875   1.19455  -1.98616
H    -0.30135   2.22393  -0.32210
H     1.17889   2.64215   0.58231
H     0.29693   0.65043   3.56066
H     1.57281   1.66002   2.82892
H    -0.07077   2.31143   3.02314
H    -1.80790   0.25142   2.34350
H    -1.68917   0.73605  -0.69182
H    -3.96756  -0.18842   1.22672
H    -2.82104   0.58494  -2.31992
H    -4.50184   1.05530  -2.68519
H    -4.00104  -0.62419  -2.88684
H    -5.92092  -1.40111  -1.32263
H    -6.03227  -0.69648   0.31771
H    -6.43329   0.27668  -1.12889
H    -0.24875  -2.36979  -0.16280
H    -1.57456  -3.68999   1.92126
H     0.06697  -4.38558   1.94148
H    -0.93326  -4.50456   0.46384
