23
Generated by autodE on: 2022-06-21. E = -351.521383 Ha
C     3.09456   0.92018   1.96821
C     2.35403   0.60469   0.88295
C     2.97459   0.50494  -0.48708
C     0.92160   0.35177   1.02547
C     0.07262   0.02246   0.01974
C    -1.34199  -0.22012   0.21659
C    -2.25170  -0.56057  -0.73110
C    -3.69360  -0.77942  -0.36970
C    -1.93084  -0.74795  -2.18684
H     4.16812   1.11363   1.89072
H     2.64089   0.99193   2.96158
H     2.83322  -0.50135  -0.91530
H     4.05247   0.71720  -0.45258
H     2.50408   1.21368  -1.18873
H     0.51882   0.43953   2.04174
H     0.46668  -0.06701  -0.99625
H    -1.70141  -0.11472   1.24739
H    -4.34804  -0.09388  -0.93769
H    -4.01453  -1.80126  -0.64132
H    -3.88102  -0.62973   0.70376
H    -2.52639  -0.05065  -2.80237
H    -0.87080  -0.59749  -2.42851
H    -2.21675  -1.76361  -2.51292
