22
Generated by autodE on: 2022-06-21. E = -757.541078 Ha
C     4.55767   0.83867   0.07724
N     3.12411   0.61907   0.06009
C     2.57588  -0.59054  -0.11236
O     3.16117  -1.65755  -0.27139
C     1.07545  -0.59222  -0.09995
O     0.38527  -1.66632  -0.24882
C    -1.07111  -1.28063  -0.17852
O    -1.92082  -2.13108  -0.29159
C    -0.98546   0.09760   0.01977
C    -1.98748   1.14746   0.18541
O    -1.65409   2.32929   0.34602
N    -3.26819   0.71113   0.14794
C    -4.40897   1.59133   0.28785
O     0.35396   0.46514   0.06007
H     4.86472   1.29262   1.03147
H     5.06764  -0.12347  -0.04452
H     4.85430   1.51056  -0.74251
H     2.51176   1.42294   0.17715
H    -3.43602  -0.28233   0.01216
H    -5.02540   1.30674   1.15539
H    -5.04478   1.56453  -0.61156
H    -4.04899   2.61647   0.43335
