45
Generated by autodE on: 2022-06-21. E = -1109.073649 Ha. Imaginary frequency = -276.6 cm-1
C     2.63005   2.48637  -3.79676
N     2.55088   1.79183  -2.52485
C     1.43558   1.16216  -2.14243
O     0.38915   1.10494  -2.78932
C     1.50874   0.52309  -0.78725
C     0.62201   2.25592   0.38380
C     0.10203   1.62606   1.49977
C     0.87266   1.57730   2.79135
C    -1.21188   1.01727   1.49728
C    -1.94496   0.76453   0.37668
C    -3.19368   0.04960   0.37395
C    -3.81956  -0.44172  -0.72954
C    -3.29148  -0.31111  -2.12871
C    -5.10246  -1.20744  -0.60001
C     1.08859  -1.05845   0.64146
C     0.22142  -1.95466   1.38345
O     0.54984  -2.35384   2.51468
N    -0.94411  -2.30570   0.79008
C    -1.99544  -2.95362   1.54900
O     0.65725  -0.44681  -0.52462
C     2.36929  -0.58516   0.96782
O     3.20098  -0.76539   1.82926
O     2.63491   0.37884  -0.10809
H     2.62966   1.77831  -4.64092
H     3.55690   3.07086  -3.82256
H     1.77146   3.16321  -3.91572
H     3.37500   1.73479  -1.93272
H    -0.03131   2.54106  -0.44144
H     1.57422   2.78359   0.45958
H     0.81728   0.58047   3.25452
H     1.92779   1.84680   2.64713
H     0.43329   2.29328   3.50854
H    -1.58699   0.65766   2.46126
H    -1.54084   1.07074  -0.59004
H    -3.64205  -0.15523   1.35210
H    -2.29765   0.14957  -2.19176
H    -3.99151   0.27669  -2.74849
H    -3.23370  -1.30885  -2.59714
H    -4.97520  -2.23879  -0.97468
H    -5.45680  -1.25325   0.43967
H    -5.89213  -0.75170  -1.22351
H    -1.21520  -1.81490  -0.05578
H    -2.35302  -2.31883   2.37740
H    -1.63831  -3.90135   1.97755
H    -2.83786  -3.16456   0.87930
