26
Generated by autodE on: 2022-05-29. E = -3330.388024 Ha
C    -3.68067  -0.26767  -1.94615
N    -3.47692   0.59968  -0.79802
C    -2.33046   0.91209  -0.16259
O    -2.32208   1.58219   0.88168
C    -1.03806   0.45182  -0.73293
N    -0.81462   0.28903  -1.99734
N     0.48046   0.04172  -2.22571
C     1.26287  -0.10027  -1.00032
C     1.92690  -1.39468  -0.93280
N     2.48307  -2.41263  -0.92663
C     2.25535   1.11932  -0.77151
C     2.98382   0.86247   0.53270
C     2.08139   1.09801   1.49391
C     0.81032   1.50547   0.76792
O     1.31223   2.13086  -0.41710
C     0.18253   0.22402   0.11541
Br   -0.16193  -1.19671   1.43874
H    -3.47922   0.24294  -2.89992
H    -4.72775  -0.59749  -1.94211
H    -3.03756  -1.15568  -1.88849
H    -4.30341   1.00893  -0.36902
H     0.71632  -0.47106  -3.07157
H     2.83010   1.37887  -1.66571
H     3.99849   0.47642   0.62024
H     2.17606   0.96140   2.57003
H     0.07384   2.12617   1.28327
