14
Generated by autodE on: 2022-05-29. E = -2973.384102 Ha
N     2.65617  -1.69967   1.18124
C     1.61591  -1.43064   0.72887
C     0.35592  -1.12985   0.18021
C    -0.13630   0.04729  -0.25499
Br    0.66130   1.72512  -0.28507
C    -1.61132  -0.23280  -0.63673
C    -2.35894  -0.49231   0.68983
C    -1.89121  -1.66757   1.11871
C    -0.86262  -2.10232   0.05417
O    -1.46357  -1.56833  -1.13469
H    -2.06486   0.44680  -1.36491
H    -3.06065   0.19854   1.15474
H    -2.10707  -2.21436   2.03552
H    -0.61868  -3.16515  -0.03290
