23
Generated by autodE on: 2022-05-25. E = -514.041582 Ha
C     2.53271  -0.08372   1.26350
C     1.40180   0.20121   0.27223
C     1.98591   0.63497  -1.01116
N     2.45019   0.98487  -2.01539
C     0.36412   1.23176   0.79654
C    -1.01141   0.67982   0.35456
C    -1.52291   1.32671  -0.94551
C    -2.07305   0.77059   1.45452
C    -0.60868  -0.76006   0.06331
C    -1.60388  -1.77653  -0.17074
N    -2.43974  -2.56218  -0.35100
N     0.63601  -1.04551  -0.00831
H     3.08334   0.84350   1.47875
H     2.09788  -0.46408   2.19884
H     3.23042  -0.83076   0.85954
H     0.55208   2.24695   0.42520
H     0.42912   1.24823   1.89306
H    -2.42441   0.81075  -1.31111
H    -1.78258   2.37867  -0.75251
H    -0.76022   1.29608  -1.73813
H    -1.74632   0.25144   2.36839
H    -3.02572   0.32954   1.12206
H    -2.25750   1.82698   1.70302
