12
Generated by autodE on: 2022-05-25. E = -157.301578 Ha
C    -0.67425   0.93808   0.86060
C    -0.04646   0.06453   0.05927
C     1.45310   0.01803  -0.05962
C    -0.79398  -0.93497  -0.78165
H    -1.76612   0.96001   0.93670
H    -0.11671   1.65950   1.46652
H     1.94329   0.76927   0.57710
H     1.76656   0.18732  -1.10485
H     1.83545  -0.97974   0.21910
H    -1.88343  -0.85287  -0.65355
H    -0.48866  -1.96504  -0.52633
H    -0.55642  -0.79929  -1.85150
