11
Generated by autodE on: 2022-05-25. E = -356.625100 Ha
C    -2.32284   0.26667  -0.88323
C    -1.21497   0.12376   0.12816
C    -1.48776   0.11076   1.51891
N    -1.75743   0.10505   2.65500
N     0.02801   0.00738  -0.24295
C     1.14900  -0.09699  -0.61711
C     2.42468  -0.22318  -1.03729
N     3.53683  -0.33307  -1.40251
H    -1.90787   0.24912  -1.89979
H    -3.04739  -0.55700  -0.78156
H    -2.86034   1.21704  -0.73571
