11
Generated by autodE on: 2022-07-26. E = -356.630464 Ha
C     1.88714   0.60858   1.42039
C     0.97769   0.57623   0.22304
C     1.03429   1.62368  -0.74706
N     1.11298   2.49689  -1.51327
N     0.12826  -0.36739   0.03375
C    -0.56329  -1.34570  -0.17873
C    -1.87507  -1.67382   0.15471
N    -2.95085  -2.08293   0.36065
H     1.67814   1.50227   2.02942
H     1.73557  -0.28999   2.03216
H     2.93716   0.65521   1.09164
