16
Generated by autodE on: 2022-06-08. E = -5531.227563 Ha
C    -2.37501  -2.13166   0.15748
C    -1.71100  -1.20790  -0.81913
O    -2.03216  -1.08773  -1.98338
C    -0.68462  -0.23918  -0.23353
Br   -1.46509   1.41547   0.21493
C     0.62529  -0.52031  -0.07950
Br    1.85751   0.75042   0.60996
C     1.13109  -1.88464  -0.45545
C     2.56919  -2.23472  -0.22867
O     0.33530  -2.67940  -0.93569
H    -1.65019  -2.55795   0.86408
H    -3.10545  -1.54341   0.74029
H    -2.91045  -2.92314  -0.38380
H     2.83348  -2.11611   0.83391
H     2.73762  -3.27193  -0.54341
H     3.22355  -1.55917  -0.80209
