27
Generated by autodE on: 2022-07-27. E = -648.744489 Ha
C     0.82857   1.53887  -3.51723
N     0.81608   1.13325  -2.12900
C     0.00964   0.10999  -1.70486
O    -0.59762  -0.59302  -2.54194
C    -0.05877  -0.11432  -0.27580
O     0.60224   0.89490   0.46070
C     1.35665   0.72246   1.48501
C     1.91856   1.95066   2.07773
C     1.63279  -0.61519   2.01814
C    -1.01950  -0.98159   0.37185
O    -1.50206  -1.99020  -0.18370
N    -1.41891  -0.64973   1.64439
C    -2.43678  -1.42607   2.32235
H    -0.13609   1.96566  -3.84730
H     1.05208   0.68436  -4.17336
H     1.60843   2.29849  -3.65972
H     1.19326   1.77224  -1.43968
H     3.01378   1.84915   2.15546
H     1.54296   2.05250   3.11157
H     1.64756   2.83893   1.49415
H     1.69677  -1.33170   1.17906
H     0.78189  -0.95200   2.63768
H     2.54316  -0.60674   2.62964
H    -1.27178   0.30007   1.96931
H    -2.17700  -2.49448   2.30800
H    -2.49991  -1.09616   3.36800
H    -3.43502  -1.31868   1.86057
