43
Generated by autodE on: 2022-06-08. E = -6179.972130 Ha. Imaginary frequency = -254.8 cm-1
C    -1.26484   2.58703  -3.60630
N    -1.30100   2.17615  -2.21790
C    -1.97556   1.06392  -1.84888
O    -2.72775   0.44604  -2.62118
C    -1.76409   0.61069  -0.45675
C    -2.74321  -0.36273   0.11359
O    -2.90830  -1.48986  -0.36524
N    -3.49254   0.09409   1.14128
C    -4.36309  -0.79199   1.88918
O    -1.14789   1.53796   0.30330
C    -0.45827   1.40660   1.41903
C     0.11858   2.68410   1.92136
C    -0.76955   0.34651   2.41460
C     1.31871   0.34534   0.19978
Br    2.49343  -0.01486   1.68381
C     1.88744   1.48687  -0.65932
C     3.28637   1.27744  -1.18415
O     1.29547   2.53515  -0.83167
C     0.61118  -0.68177  -0.41626
Br    0.37288  -2.35959   0.45937
C     0.37257  -0.67192  -1.88520
C    -0.40888  -1.78216  -2.52605
O     0.87637   0.22696  -2.55641
H    -0.76511   3.56165  -3.67644
H    -2.28323   2.68267  -4.00904
H    -0.71595   1.86333  -4.23265
H    -0.54012   2.48225  -1.61286
H    -3.35011   1.03814   1.48307
H    -3.79504  -1.63047   2.32481
H    -4.83498  -0.22335   2.69955
H    -5.15110  -1.21355   1.24614
H     1.08569   2.49669   2.41042
H     0.24011   3.41683   1.11829
H    -0.55639   3.09261   2.69462
H    -0.98590  -0.63171   1.97558
H    -1.65505   0.66624   2.99120
H     0.06275   0.25458   3.12233
H     3.51681   0.21673  -1.34796
H     3.39457   1.84524  -2.11779
H     4.00527   1.68094  -0.45219
H     0.22500  -2.68275  -2.58377
H    -0.68079  -1.47504  -3.54343
H    -1.30427  -2.02828  -1.94147
