40
Generated by autodE on: 2022-06-18. E = -769.892793 Ha
C     0.22883   2.69754   0.77912
C    -0.23360   2.04110  -0.29404
C    -0.79518   2.75224  -1.49353
C    -0.25359   0.52483  -0.36701
C    -1.39798  -0.12215   0.46861
C    -2.69749  -0.11712  -0.32329
C    -2.92799  -1.19359  -1.34541
O    -3.49255   0.79398  -0.14876
N    -0.88298  -1.44528   0.79882
C    -1.66883  -2.18434   1.77544
C     0.51625  -1.23871   1.15667
C     0.67504  -0.70104   2.53080
N     0.76186  -0.27196   3.60654
C     1.04350  -0.20495   0.12555
C     1.79156  -0.85608  -1.00188
C     2.86265  -0.35528  -1.64352
C     3.50460   0.96754  -1.32199
C     3.50122  -1.10426  -2.78290
H     0.21523   3.79068   0.82114
H     0.62483   2.17384   1.65429
H    -0.77220   3.84507  -1.37278
H    -1.83855   2.44225  -1.67412
H    -0.22785   2.48490  -2.40196
H    -0.40712   0.23750  -1.41653
H    -1.57918   0.49018   1.37396
H    -2.03836  -1.32873  -1.97886
H    -3.79992  -0.93770  -1.96131
H    -3.10948  -2.15514  -0.83922
H    -1.19707  -3.15885   1.96993
H    -1.76918  -1.64762   2.74023
H    -2.68010  -2.36906   1.38713
H     1.07260  -2.18786   1.12246
H     1.69286   0.51261   0.63623
H     1.38258  -1.81399  -1.34510
H     3.45312   1.63481  -2.20020
H     4.57760   0.83367  -1.09944
H     3.03609   1.49134  -0.47834
H     2.99567  -2.06015  -2.98523
H     3.48573  -0.49944  -3.70688
H     4.56464  -1.31077  -2.56777
