17
Generated by autodE on: 2022-06-18. E = -418.325970 Ha
C    -3.39668  -0.11552   0.04026
C    -1.93348   0.25232   0.14374
O    -1.61038   1.38994   0.54110
C    -0.99328  -0.75883  -0.23853
N     0.35156  -0.60617  -0.22278
C     1.16010  -1.76719  -0.66023
C     1.00710   0.49937   0.15471
C     2.40937   0.56065   0.13437
N     3.57451   0.66658   0.13758
H    -3.56134  -1.15327  -0.27917
H    -3.87808   0.04590   1.01821
H    -3.88605   0.56403  -0.67682
H    -1.34705  -1.72919  -0.57485
H     0.49371  -2.58055  -0.95974
H     1.79833  -2.09402   0.17059
H     1.78747  -1.46822  -1.50944
H     0.41301   1.35182   0.47869
