17
Generated by autodE on: 2022-07-27. E = -418.321629 Ha
C    -2.67173   1.23566  -0.15019
C    -1.74290   0.08290  -0.47515
O    -2.15569  -0.89733  -1.11414
C    -0.39924   0.25551   0.01699
N     0.62264  -0.60784  -0.13209
C     0.42679  -1.88270  -0.85763
C     1.86398  -0.40020   0.34456
C     2.19752   0.76279   1.05368
N     2.48715   1.72852   1.64713
H    -3.67147   1.02647  -0.55260
H    -2.73687   1.38595   0.93964
H    -2.28936   2.17397  -0.58393
H    -0.16398   1.16817   0.56430
H    -0.35189  -2.46677  -0.35652
H     1.37398  -2.42932  -0.86034
H     0.10283  -1.66875  -1.88139
H     2.61974  -1.16237   0.16969
