40
Generated by autodE on: 2022-06-18. E = -769.829576 Ha. Imaginary frequency = -382.3 cm-1
C    -0.45119   3.01103   0.46136
C    -0.92659   2.19421  -0.50058
C    -2.06872   2.61345  -1.39269
C    -0.39590   0.84583  -0.78160
C    -1.35886  -0.34171   0.92005
C    -2.73771  -0.59094   0.49887
C    -3.72877   0.46785   0.91973
O    -3.09657  -1.56987  -0.15932
N    -0.37912  -1.28323   0.99406
C    -0.48091  -2.54718   0.25756
C     0.89311  -0.80375   1.19323
C     1.13027   0.20707   2.16339
N     1.37043   1.05528   2.92761
C     0.96055   0.47596  -0.61198
C     1.57328  -0.48003  -1.54101
C     2.88433  -0.79802  -1.62999
C     3.93684  -0.24812  -0.70819
C     3.38042  -1.77420  -2.65995
H    -0.88037   4.00557   0.61163
H     0.36916   2.71666   1.12051
H    -2.49430   3.58070  -1.08873
H    -2.87177   1.85874  -1.38507
H    -1.72960   2.69510  -2.44005
H    -0.93977   0.29631  -1.55598
H    -1.21152   0.51939   1.57034
H    -4.58663   0.47596   0.23379
H    -4.09302   0.20723   1.92941
H    -3.27406   1.46598   0.98748
H    -1.34744  -3.11643   0.60774
H     0.43430  -3.12357   0.43151
H    -0.59704  -2.35576  -0.81903
H     1.70427  -1.52370   1.07711
H     1.62200   1.22417  -0.17038
H     0.87870  -0.97500  -2.22988
H     4.41345  -1.07000  -0.14398
H     3.54722   0.47633   0.01930
H     4.74593   0.23846  -1.28123
H     4.13563  -1.30696  -3.31756
H     2.56558  -2.16024  -3.29047
H     3.88385  -2.63244  -2.17886
