38
Generated by autodE on: 2022-06-16. E = -602.363546 Ha
C    -1.41402   1.97502   1.79285
C    -1.08975   1.91460   0.49319
C    -0.67787   3.12572  -0.29508
C    -1.04266   0.59842  -0.25626
C    -2.13322  -0.42546   0.03126
C    -3.57075  -0.03548   0.14713
N    -1.73452  -1.64111   0.07343
C    -0.27962  -1.70230  -0.19390
C     0.40226  -2.67937   0.75868
C    -0.09420  -2.16601  -1.64315
C     0.22378  -0.24078   0.04170
C     1.44487   0.16988  -0.71673
C     2.69404   0.32506  -0.23681
C     3.82613   0.73402  -1.14231
C     3.09120   0.10427   1.19846
H    -1.69287   1.07934   2.35670
H    -1.40408   2.92310   2.33903
H     0.33020   2.98006  -0.72136
H    -1.35665   3.28374  -1.15117
H    -0.66984   4.03780   0.31967
H    -1.09370   0.81533  -1.33958
H    -3.88057   0.51247  -0.75924
H    -4.20861  -0.92157   0.26736
H    -3.73117   0.64696   0.99534
H     0.20563  -2.40594   1.80717
H     0.04231  -3.70768   0.59567
H     1.49222  -2.66769   0.60068
H    -0.52435  -1.44370  -2.35426
H     0.97288  -2.28978  -1.88136
H    -0.59552  -3.13427  -1.79610
H     0.40500  -0.15113   1.12198
H     1.28980   0.35172  -1.78683
H     4.28748   1.67550  -0.79438
H     3.49471   0.87417  -2.18206
H     4.63020  -0.02340  -1.13328
H     2.24544  -0.14209   1.85341
H     3.82565  -0.71738   1.26982
H     3.59277   1.00101   1.60260
