15
Generated by autodE on: 2022-06-16. E = -250.750148 Ha
C     2.61002  -0.23254  -0.32517
C     1.49406  -0.04059   0.66242
N     0.31748   0.00602   0.27186
C    -0.92210   0.06697  -0.02532
C    -1.76746  -1.17595  -0.04883
C    -1.57522   1.38753  -0.32460
H     2.28194  -0.31188  -1.37837
H     3.17501  -1.13965  -0.05288
H     3.32244   0.60356  -0.22915
H    -1.17761  -2.07037   0.19455
H    -2.22571  -1.31340  -1.04334
H    -2.59664  -1.08821   0.67536
H    -2.01943   1.37937  -1.33484
H    -0.85705   2.21661  -0.26163
H    -2.39994   1.57579   0.38534
