38
Generated by autodE on: 2022-06-16. E = -602.261741 Ha. Imaginary frequency = -264.8 cm-1
C    -1.37724   1.51337   2.30674
C    -1.36538   1.93449   1.02478
C    -2.26396   3.05844   0.57236
C    -0.49459   1.37395  -0.03074
C    -2.08877  -0.17587  -0.62725
C    -3.49352   0.06051  -1.02761
N    -1.47204  -1.20085  -0.36960
C    -0.36830  -1.77316   0.05384
C    -0.27644  -2.18440   1.49736
C     0.50383  -2.48313  -0.93670
C     0.64717   0.61741   0.20423
C     1.67700   0.45991  -0.80244
C     2.91634  -0.07539  -0.66286
C     3.86322  -0.16682  -1.82843
C     3.45097  -0.62362   0.63297
H    -0.73003   0.70675   2.66053
H    -2.04351   1.97353   3.04192
H    -1.66243   3.92688   0.25131
H    -2.86334   2.75736  -0.30213
H    -2.94803   3.38737   1.36813
H    -0.57095   1.87721  -0.99971
H    -3.52796   0.73118  -1.90008
H    -4.04644  -0.86643  -1.25296
H    -4.00387   0.58971  -0.20627
H    -0.89859  -1.54507   2.13853
H    -0.59941  -3.23406   1.63455
H     0.76798  -2.12195   1.83957
H     0.37123  -2.08068  -1.95056
H     1.56164  -2.36859  -0.65634
H     0.28307  -3.56684  -0.95634
H     0.88243   0.33045   1.23017
H     1.40473   0.82061  -1.80357
H     4.80862   0.36999  -1.62420
H     3.42641   0.24868  -2.74953
H     4.14945  -1.21622  -2.02969
H     2.74542  -0.52602   1.46908
H     3.70819  -1.69379   0.53183
H     4.38878  -0.11228   0.91858
