14
Generated by autodE on: 2022-06-26. E = -270.683215 Ha
C    -2.04571  -1.14399   0.16079
C    -0.81316  -0.31654  -0.02377
C    -0.96817   0.92870  -0.84876
C     0.36524  -0.70059   0.53927
C     1.62980   0.01184   0.43558
O     1.83284   1.06441  -0.16553
H    -1.86885  -2.03795   0.77451
H    -2.83965  -0.53495   0.62793
H    -2.44081  -1.45262  -0.82313
H    -0.27408   0.92474  -1.70377
H    -0.71342   1.82384  -0.25898
H    -1.99634   1.03147  -1.22291
H     0.39422  -1.62266   1.12715
H     2.47583  -0.48323   0.97143
