42
Generated by autodE on: 2022-05-31. E = -1181.893837 Ha
C     3.21772  -1.84399   2.12314
O     2.24385  -1.75244   1.07171
C     2.02898  -0.55052   0.54431
O     2.65941   0.43762   0.85628
C     0.95248  -0.61420  -0.56820
C     1.73590  -0.88323  -1.85899
N    -0.01881  -1.67805  -0.32020
C    -1.03392  -1.19776   0.59174
C    -0.58937  -1.18406   2.01041
N    -0.17946  -1.18023   3.09600
C    -2.35572  -2.01039   0.53646
C    -2.58562  -2.86803  -0.66485
O    -3.14103  -1.90467   1.45707
C    -1.26054   0.28293   0.14513
C    -2.32015   0.49169  -0.98510
C    -2.41645   1.99444  -1.20024
C    -1.30419   2.32738  -1.86552
C    -0.53498   1.02080  -2.03230
O    -1.59237   0.06834  -2.14825
C     0.05397   0.67698  -0.59798
C     0.72596   1.91373  -0.02328
O     0.47406   2.41229   1.05250
O     1.58350   2.43783  -0.90286
C     2.31847   3.59315  -0.47627
H     2.90169  -1.23016   2.97847
H     3.25546  -2.90154   2.40689
H     4.20042  -1.50631   1.76545
H     1.04394  -1.06142  -2.69163
H     2.35969  -1.78026  -1.73205
H     2.38926  -0.03215  -2.09523
H     0.42136  -2.54493  -0.01613
H    -3.61668  -3.24379  -0.65825
H    -2.36486  -2.31940  -1.59048
H    -1.88061  -3.71586  -0.62932
H    -1.47516   0.91375   1.01150
H    -3.26270  -0.05360  -0.87479
H    -3.20046   2.63666  -0.79970
H    -0.94036   3.31327  -2.15179
H     0.17148   0.95290  -2.86206
H     2.95377   3.87739  -1.32278
H     2.93669   3.34304   0.39795
H     1.63251   4.41333  -0.22127
