23
Generated by autodE on: 2022-07-27. E = -646.329297 Ha
C     2.53694   0.36906   2.00628
O     1.72593  -0.05444   0.89865
C     1.85777   0.61114  -0.24270
O     2.69440   1.46654  -0.45497
C     0.91123   0.13925  -1.29043
C     1.39805   0.15755  -2.69836
N    -0.30342  -0.26411  -1.02239
C    -1.14701  -0.29532   0.06627
C    -0.90086   0.36128   1.28406
N    -0.77930   0.91149   2.30839
C    -2.41416  -0.94261  -0.22218
C    -3.45561  -0.99004   0.86222
O    -2.61280  -1.42737  -1.34782
H     3.60185   0.24277   1.76546
H     2.25466  -0.27280   2.84762
H     2.33130   1.42214   2.24349
H     2.34210  -0.40311  -2.78870
H     0.65290  -0.26779  -3.38441
H     1.60990   1.19676  -3.00043
H    -0.83205  -0.66102  -1.82137
H    -3.77239   0.03079   1.13064
H    -3.04748  -1.45295   1.77427
H    -4.32452  -1.56184   0.51289
