19
Generated by autodE on: 2022-05-31. E = -535.502986 Ha
C     3.53894   0.19631   0.05585
O     2.12746   0.28093   0.28887
C     1.35267  -0.59035  -0.37827
O     1.79751  -1.42649  -1.14666
C    -0.06533  -0.39930  -0.06766
C    -1.11986  -0.96946  -0.67183
C    -2.34981  -0.30844  -0.02030
C    -2.37208   1.16311  -0.50050
C    -1.32864   1.73666   0.10487
C    -0.68046   0.60633   0.93732
O    -1.85451  -0.13434   1.32239
H     3.99607   0.97693   0.67497
H     3.76628   0.37193  -1.00587
H     3.91982  -0.79286   0.34950
H    -1.13399  -1.68665  -1.49181
H    -3.29178  -0.86588  -0.04915
H    -3.07445   1.57314  -1.22520
H    -0.94094   2.75096   0.01762
H    -0.06522   0.89091   1.79598
