29
Generated by autodE on: 2022-05-28. E = -845.087099 Ha
C     3.68164  -0.31696   0.01327
C     2.65269   0.43320  -0.77159
O     2.89572   1.42886  -1.43223
C     1.21324  -0.04809  -0.70907
O     1.10705  -1.32718  -0.08740
C    -0.22678  -1.49063   0.38317
C    -0.23838  -2.50485   1.51938
C    -1.05231  -2.01153  -0.73678
N    -1.65976  -2.48815  -1.60207
C    -0.68704  -0.05565   0.80914
F    -0.67325   0.03484   2.18749
C    -2.03753   0.47374   0.23361
C    -2.27376   1.83121   0.88401
C    -1.39625   2.65706   0.30100
C    -0.62018   1.80088  -0.68828
O    -1.61545   0.83250  -1.08784
C     0.33263   0.89210   0.13485
H     4.66167   0.16658  -0.08725
H     3.37865  -0.35938   1.07205
H     3.72893  -1.35944  -0.34023
H     0.83210  -0.09671  -1.74428
H     0.40794  -2.14232   2.32812
H     0.13847  -3.46954   1.15294
H    -1.26025  -2.63871   1.90015
H    -2.86294  -0.24576   0.21934
H    -2.96370   2.02582   1.70400
H    -1.18520   3.70258   0.52531
H    -0.16401   2.28895  -1.55575
H     0.91750   1.43236   0.88890
