16
Generated by autodE on: 2022-05-28. E = -438.166316 Ha
C     2.21890   0.63679  -1.24692
C     1.71031  -0.77327  -1.06048
O     2.32288  -1.75856  -1.49618
C     0.47331  -0.96660  -0.35187
O    -0.14433   0.10733   0.09283
C    -1.27060   0.16831   0.75512
C    -2.02648  -1.05354   1.09976
C    -1.67118   1.47792   1.09364
N    -2.03460   2.54804   1.39119
H     3.16410   0.60596  -1.80415
H     2.37974   1.12471  -0.27235
H     1.48476   1.24637  -1.79746
H     0.04421  -1.95373  -0.17774
H    -2.94246  -0.80036   1.64675
H    -1.40524  -1.72716   1.71984
H    -2.29112  -1.61180   0.18196
