16
Generated by autodE on: 2022-07-26. E = -438.161537 Ha
C     2.26126   1.43691   0.76015
C     1.33080   1.55701  -0.42485
O     1.49559   2.41520  -1.30581
C     0.22948   0.64229  -0.52396
O     0.09277  -0.25321   0.43172
C    -0.79078  -1.19941   0.59801
C    -0.67886  -2.05580   1.80721
C    -1.80620  -1.35791  -0.37096
N    -2.64522  -1.49039  -1.17304
H     3.03256   2.21462   0.68834
H     1.70888   1.55018   1.70633
H     2.73975   0.44474   0.78026
H    -0.48556   0.65563  -1.35026
H    -0.59754  -3.11991   1.52988
H    -1.56788  -1.94818   2.45166
H     0.21335  -1.76316   2.37709
