13
Generated by autodE on: 2022-05-28. E = -406.788330 Ha
F     2.15865   0.66076  -0.52775
C     0.88452   0.52573  -0.17193
C    -0.17683   1.27353  -0.46739
C    -1.33626   0.46993   0.16962
C    -1.51310  -0.84049  -0.63819
C    -0.43021  -1.57040  -0.35790
C     0.38647  -0.69464   0.62459
O    -0.68047  -0.05735   1.34935
H    -0.26493   2.16841  -1.07931
H    -2.24286   1.03078   0.42140
H    -2.33598  -1.04846  -1.32145
H    -0.11627  -2.53931  -0.74417
H     1.11504  -1.18980   1.27596
