50
Generated by autodE on: 2022-06-24. E = -1224.702154 Ha
C     2.55716  -1.06870   3.11204
N     1.88317  -0.30444   2.07852
C     1.49229  -0.87049   0.92806
O     1.72379  -2.05671   0.66831
C     0.78222   0.06285  -0.08241
C     1.88068   1.01523  -0.58464
C     1.84117   2.38535  -0.30734
C     2.87158   3.22550  -0.74397
C     3.95337   2.70266  -1.45688
C     4.00233   1.33029  -1.72827
C     2.97416   0.49287  -1.29236
N    -0.33652   0.78834   0.53211
C    -1.61527   0.30133   0.06010
C    -2.70536   1.40107   0.10534
C    -2.31335   2.74685   0.63858
O    -3.83066   1.16157  -0.29109
C    -2.14724  -0.90359   0.87112
O    -3.23462  -1.41951   0.72903
O    -1.26675  -1.28535   1.79602
C    -1.57553  -2.45965   2.55622
C    -1.27923  -0.09002  -1.43503
C    -2.32157  -0.95407  -2.14591
C    -1.10252   1.19605  -2.26876
C     0.12874  -0.74277  -1.26474
C     0.13329  -2.26055  -1.10583
O    -0.75476  -2.91560  -0.59316
H     2.69140  -0.43041   3.99354
H     3.54487  -1.42057   2.77295
H     1.95977  -1.94850   3.39592
H     1.75615   0.69347   2.21451
H     0.99127   2.78894   0.24318
H     2.82483   4.29536  -0.52617
H     4.75645   3.35943  -1.79946
H     4.84510   0.91012  -2.28237
H     3.02233  -0.57898  -1.50063
H    -0.28444   0.82393   1.54525
H    -3.18621   3.41225   0.62629
H    -1.92173   2.65054   1.66347
H    -1.49986   3.16889   0.03020
H    -0.73903  -2.59509   3.25150
H    -1.65918  -3.32621   1.88580
H    -2.51571  -2.32481   3.10946
H    -3.25118  -0.38212  -2.27261
H    -2.55547  -1.88098  -1.61697
H    -1.94484  -1.21469  -3.14750
H    -0.38817   1.89606  -1.81939
H    -2.06344   1.71421  -2.40102
H    -0.73120   0.92568  -3.26822
H     0.71308  -0.56043  -2.17502
H     0.96896  -2.76845  -1.63384
