14
Generated by autodE on: 2022-06-24. E = -270.683222 Ha
C    -1.47158  -0.43059   0.41571
C    -0.55511   0.67325  -0.02816
C    -1.17693   2.02493  -0.18426
C     0.77015   0.49179  -0.28087
C     1.49506  -0.76453  -0.16488
O     1.03525  -1.84861   0.18707
H    -1.13867  -0.85184   1.37797
H    -1.45876  -1.26772  -0.29954
H    -2.50350  -0.06924   0.52639
H    -0.45591   2.78978  -0.50392
H    -2.00183   1.97622  -0.91682
H    -1.63797   2.33763   0.76924
H     1.36869   1.34923  -0.60204
H     2.57743  -0.69110  -0.43148
