36
Generated by autodE on: 2022-06-24. E = -954.000693 Ha
C    -3.27143   3.38705   0.95720
N    -2.49670   2.17028   0.81048
C    -1.28418   2.17923   0.23848
O    -0.75404   3.20920  -0.20561
C    -0.57345   0.86206   0.11038
N     0.52240   0.97408  -0.60218
C     1.53662   0.16113  -1.03541
C     2.33226   0.78711  -2.07728
C     3.51133   0.06307  -2.67204
O     2.03858   1.93253  -2.46570
C     1.86978  -1.11289  -0.41241
O     2.47219  -2.03027  -0.95438
O     1.49178  -1.16721   0.87757
C     1.63754  -2.42253   1.54733
C    -1.12821  -0.40955   0.59810
C    -1.30296  -1.47992  -0.29822
C    -1.83632  -2.68740   0.14785
C    -2.19409  -2.84550   1.49224
C    -2.02389  -1.78574   2.38697
C    -1.49822  -0.57002   1.94416
H    -4.17655   3.16265   1.53367
H    -3.56470   3.79554  -0.02347
H    -2.69035   4.15781   1.48583
H    -2.89962   1.28901   1.11218
H     0.63417   1.92991  -0.99872
H     4.04164   0.74888  -3.34567
H     4.19475  -0.30475  -1.89275
H     3.17099  -0.81843  -3.23631
H     1.21973  -2.28067   2.55063
H     1.08257  -3.20968   1.01657
H     2.69783  -2.70628   1.61576
H    -1.01810  -1.36281  -1.34580
H    -1.97259  -3.51122  -0.55617
H    -2.60506  -3.79563   1.84063
H    -2.29573  -1.90559   3.43793
H    -1.34700   0.24836   2.65021
