50
Generated by autodE on: 2022-06-24. E = -1224.649782 Ha. Imaginary frequency = -339.8 cm-1
C     3.69458  -1.24327   2.54943
N     2.84806  -0.43563   1.69201
C     1.51277  -0.53104   1.73884
O     0.90797  -1.19266   2.59523
C     0.74049   0.14733   0.62983
C     1.33364   1.34798  -0.04887
C     1.30625   1.60503  -1.42825
C     1.80394   2.80513  -1.94135
C     2.33607   3.77449  -1.08952
C     2.36267   3.53678   0.28752
C     1.86515   2.33968   0.80159
N    -0.58710   0.02911   0.83600
C    -1.53280   0.07292  -0.17424
C    -1.70326   1.36061  -0.95479
C    -1.49842   2.65732  -0.20456
O    -2.15694   1.37043  -2.08502
C    -2.85520  -0.50688   0.17672
O    -3.82527  -0.49085  -0.55966
O    -2.85742  -1.08935   1.38303
C    -4.05369  -1.77993   1.77144
C    -0.66183  -1.56535  -1.37885
C    -1.42528  -2.75141  -0.81592
C    -1.06370  -1.22636  -2.79405
C     0.73015  -1.45425  -1.05919
C     1.44082  -2.44895  -0.28978
O     2.66093  -2.62768  -0.35217
H     3.39037  -1.13373   3.59981
H     3.63257  -2.30949   2.27686
H     4.73304  -0.90694   2.44182
H     3.26646   0.01797   0.88562
H     0.88651   0.88230  -2.12051
H     1.76979   2.97862  -3.01900
H     2.72610   4.71075  -1.49488
H     2.76789   4.28783   0.96924
H     1.87191   2.18037   1.88075
H    -0.78243  -0.65432   1.57741
H    -0.90125   2.56226   0.70602
H    -2.50821   2.99939   0.08323
H    -1.06532   3.41214  -0.87491
H    -4.25172  -2.61451   1.08357
H    -3.86662  -2.15814   2.78274
H    -4.91042  -1.09166   1.77303
H    -1.04107  -3.67731  -1.27597
H    -2.49207  -2.68790  -1.06758
H    -1.32468  -2.85451   0.27171
H    -0.53139  -0.35113  -3.18807
H    -2.14316  -1.04649  -2.87309
H    -0.81816  -2.09080  -3.43705
H     1.37442  -0.92958  -1.76496
H     0.83757  -3.06738   0.40926
