43
Generated by autodE on: 2022-05-30. E = -1078.649422 Ha
C     3.59170  -0.28528   0.99728
C     2.54468  -1.20433   0.32673
C     2.54439  -2.57148   1.04005
C     2.92361  -1.36332  -1.16199
C     2.14439  -2.38516  -2.00150
C     0.61428  -2.30014  -2.01158
C    -0.02041  -1.01213  -2.53976
C     0.20772   0.28487  -1.75483
F     1.35242   0.95675  -2.23049
C     0.30882   0.08845  -0.27536
C     1.20860  -0.53309   0.50535
N     0.66479  -0.47419   1.90505
O    -0.07936   0.77942   1.87231
C    -0.81285   0.49183   0.70073
C    -1.80323   1.53863   0.32732
C    -3.14125   1.22119   0.06969
C    -4.02980   2.23126  -0.30940
C    -3.58514   3.55071  -0.42958
C    -2.24557   3.86419  -0.17372
C    -1.35187   2.86036   0.20043
O    -1.45537  -0.77758   1.12159
C    -0.49322  -1.38910   1.83472
O    -0.55176  -2.48611   2.30632
H     4.58264  -0.76314   0.95662
H     3.34228  -0.09748   2.05154
H     3.64952   0.68203   0.47531
H     2.38303  -2.45808   2.12167
H     3.52145  -3.05561   0.88982
H     1.76384  -3.23912   0.64939
H     3.98412  -1.66251  -1.17884
H     2.88150  -0.37549  -1.63568
H     2.41655  -3.40125  -1.67124
H     2.50954  -2.30127  -3.04011
H     0.21966  -2.50745  -1.00340
H     0.24078  -3.12269  -2.64379
H    -1.11160  -1.16195  -2.57468
H     0.29804  -0.80906  -3.57624
H    -0.62644   0.96954  -1.96155
H    -3.48520   0.19097   0.16398
H    -5.07444   1.98398  -0.51029
H    -4.28259   4.33760  -0.72563
H    -1.89502   4.89416  -0.26862
H    -0.30316   3.09617   0.39230
