17
Generated by autodE on: 2022-05-30. E = -588.501825 Ha
O     3.82432   0.33673   0.10352
C     2.75899  -0.21607  -0.01827
N     2.38573  -1.46138  -0.27379
O     0.95627  -1.43895  -0.28340
C     0.53188  -0.23592  -0.04348
C    -0.86813   0.10182   0.01241
C    -1.24757   1.43037   0.28834
C    -2.59946   1.75510   0.34194
C    -3.56626   0.76632   0.12294
C    -3.18748  -0.55430  -0.15109
C    -1.84025  -0.89473  -0.20784
O     1.50153   0.59170   0.13312
H    -0.48332   2.19031   0.45615
H    -2.90313   2.78167   0.55458
H    -4.62609   1.02696   0.16604
H    -3.94815  -1.31852  -0.32018
H    -1.53217  -1.91943  -0.42005
