30
Generated by autodE on: 2022-05-28. E = -780.090989 Ha
C     4.12295  -0.92083   0.43656
C     2.69108  -1.09636   0.01747
O     2.28200  -2.14669  -0.44040
C     1.75287   0.12721   0.16071
C     2.30910   1.29004  -0.66641
N     1.79859   0.53735   1.61249
N     0.71623   0.39258   2.18853
C    -0.34577  -0.12209   1.30979
C    -1.43463   0.96750   1.06735
O    -0.79377   1.79929   0.09581
C    -0.57415   0.77547  -0.88404
C    -1.98101   0.16984  -0.98462
C    -2.50915  -0.50156  -2.10889
N    -2.93111  -1.04957  -3.04763
C    -2.52352   0.27933   0.25067
C    -3.79362  -0.23615   0.80599
C     0.28633  -0.25260  -0.09652
H     4.58430  -1.90428   0.59522
H     4.66595  -0.40495  -0.37301
H     4.20386  -0.29672   1.33689
H     3.32753   1.54609  -0.34601
H     2.33186   1.02325  -1.73287
H     1.67698   2.17770  -0.53302
H    -0.76296  -1.03135   1.75949
H    -1.74859   1.53095   1.95225
H    -0.14665   1.17887  -1.80586
H    -4.38301   0.58662   1.24415
H    -4.39644  -0.75003   0.04460
H    -3.58075  -0.94078   1.62874
H     0.21614  -1.25565  -0.52522
