13
Generated by autodE on: 2022-05-28. E = -340.881195 Ha
C     1.26092  -1.83349  -0.49338
C     0.89487  -0.40385  -0.18384
O     1.74102   0.49197  -0.11845
C    -0.52790  -0.15186   0.03333
C    -1.62914  -1.17661  -0.03210
N    -0.82647   1.09623   0.30751
N    -1.03811   2.18497   0.54131
H     0.94931  -2.49858   0.32809
H     2.34644  -1.90765  -0.63839
H     0.74033  -2.17855  -1.40120
H    -1.67231  -1.64430  -1.02837
H    -2.60373  -0.71178   0.16945
H    -1.47004  -1.97440   0.71045
