53
Generated by autodE on: 2022-06-02. E = -1264.293428 Ha
C    -7.95965  -3.14840   0.80014
N    -7.34441  -2.78274   2.05947
C    -7.75592  -3.31514   3.21606
O    -8.71912  -4.08430   3.28988
C    -7.01333  -2.88204   4.52386
C    -5.60776  -2.29039   4.22480
O    -5.51004  -1.28589   3.50038
N    -4.53842  -2.85614   4.79441
C    -3.19668  -2.39226   4.49803
C    -7.84721  -1.69668   5.09375
C    -7.35248  -1.13870   6.44688
C    -8.37826  -1.23548   7.58185
C    -8.58908  -2.62865   8.18058
C    -8.96267  -3.71232   7.17324
F    -9.65523  -4.73003   7.85566
C    -7.78108  -4.37613   6.51850
C    -7.00515  -4.06145   5.46437
N    -6.04312  -5.14686   5.27193
C    -6.25269  -5.92184   4.07235
C    -7.19621  -6.95826   4.02261
C    -7.41155  -7.64497   2.82776
C    -6.70238  -7.29528   1.67174
C    -5.75960  -6.26624   1.72462
C    -5.52400  -5.58916   2.92602
N    -6.09185  -5.91674   6.48986
C    -4.97711  -5.50527   7.34210
N    -7.31805  -5.56318   7.14601
H    -7.89038  -4.23561   0.63403
H    -7.43690  -2.63139  -0.01397
H    -9.02499  -2.86820   0.77253
H    -6.59322  -2.09641   2.09422
H    -4.67522  -3.78617   5.20008
H    -2.93766  -2.55516   3.43833
H    -2.48496  -2.94239   5.12615
H    -3.10190  -1.31716   4.70895
H    -8.89570  -2.01472   5.14921
H    -7.81608  -0.90812   4.33159
H    -6.42246  -1.64408   6.75383
H    -7.08665  -0.07975   6.31033
H    -8.06842  -0.56754   8.40150
H    -9.34676  -0.84933   7.21892
H    -7.69162  -2.95691   8.72992
H    -9.41704  -2.58110   8.90605
H    -9.66352  -3.32791   6.42084
H    -7.76704  -7.21711   4.91479
H    -8.14833  -8.45120   2.79424
H    -6.88289  -7.82812   0.73538
H    -5.19403  -5.99172   0.83125
H    -4.78007  -4.79342   2.97173
H    -4.03519  -5.73397   6.82477
H    -5.02014  -6.08339   8.27521
H    -5.00718  -4.42729   7.58689
H    -8.00590  -6.31867   7.08941
