27
Generated by autodE on: 2022-06-24. E = -815.067577 Ha
C    -1.75733   3.41455   1.56197
N    -0.98455   2.28363   1.08573
C    -1.58670   1.18262   0.61413
O    -2.82191   1.06329   0.55524
C    -0.70292   0.08820   0.11619
O     0.55543   0.38419   0.07751
C     1.67284  -0.15657  -0.38224
C     1.72014  -1.25104  -1.27462
N     1.87058  -2.07912  -2.08264
C     2.90758   0.56646  -0.06443
C     2.79860   1.81199   0.77196
O     3.97953   0.13305  -0.48155
C    -1.15707  -1.31114  -0.10923
O    -0.33361  -2.23057  -0.00903
N    -2.46149  -1.48174  -0.36544
C    -3.04111  -2.80602  -0.45597
H    -2.40426   3.81371   0.76525
H    -1.06591   4.19989   1.88831
H    -2.39971   3.12768   2.40937
H     0.02815   2.32804   1.11545
H     2.19030   2.56722   0.24755
H     3.80478   2.21031   0.95148
H     2.30298   1.59723   1.73143
H    -3.05174  -0.65404  -0.24907
H    -4.05079  -2.72553  -0.87656
H    -3.10559  -3.29253   0.53225
H    -2.42832  -3.44424  -1.10836
