27
Generated by autodE on: 2022-07-27. E = -815.064213 Ha
C     2.30015  -1.93316   3.04661
N     1.56909  -1.05345   2.15535
C     0.68675  -1.53948   1.27271
O     0.44589  -2.75037   1.14718
C     0.01784  -0.53790   0.38266
O     0.43201   0.67548   0.54813
C     0.24315   1.74025  -0.25985
C     0.55997   2.96961   0.35471
N     0.78489   4.00505   0.84551
C     0.17275   1.56728  -1.69895
C     0.21762   2.81867  -2.53579
O     0.15513   0.43792  -2.19422
C    -1.24711  -0.82410  -0.36880
O    -2.06879   0.08193  -0.53403
N    -1.42680  -2.09610  -0.74415
C    -2.66592  -2.52939  -1.35664
H     1.61174  -2.51270   3.68132
H     2.91780  -2.64533   2.47706
H     2.95092  -1.32544   3.68555
H     1.72986  -0.05182   2.19799
H     1.16801   3.35500  -2.38633
H     0.11358   2.54703  -3.59366
H    -0.59665   3.50004  -2.24218
H    -0.77016  -2.77710  -0.35551
H    -2.51297  -3.51427  -1.81460
H    -3.48281  -2.60364  -0.61887
H    -2.97123  -1.81276  -2.13182
