47
Generated by autodE on: 2022-06-24. E = -1272.797092 Ha. Imaginary frequency = -130.8 cm-1
C     0.75640  -0.95424   3.36512
N     0.07631  -0.21307   2.32381
C    -0.70025  -0.79939   1.39754
O    -1.06612  -1.98274   1.43357
C    -1.14090   0.08316   0.26102
C    -2.49546  -0.19468  -0.35608
O    -3.35563   0.68673  -0.29813
N    -2.71292  -1.42445  -0.83979
C    -4.03019  -1.82680  -1.29456
O    -0.76238   1.32521   0.41590
C    -0.86489   2.39389  -0.43978
C    -0.34822   3.56559   0.14959
N     0.07624   4.54540   0.62784
C    -1.30502   2.35906  -1.80333
C    -1.26936   3.68425  -2.53986
O    -1.64568   1.32153  -2.39823
C     1.14130   0.27415  -1.46268
C     0.43719  -0.90572  -1.38645
C     1.05301  -2.12308  -0.75275
C     2.17761  -1.72782   0.17755
C     2.77320  -2.69036   1.14022
N     2.26275  -3.93938   1.12241
O     3.68506  -2.37316   1.92250
C     2.69413  -0.47840   0.15598
N     2.23999   0.51016  -0.70156
C     2.80127   1.85620  -0.60721
H     0.40496  -1.99219   3.35231
H     1.84419  -0.94803   3.19783
H     0.54935  -0.51855   4.35441
H     0.36546   0.74421   2.14830
H    -2.01910  -2.13761  -0.63421
H    -3.94999  -2.79568  -1.80250
H    -4.74298  -1.92011  -0.45774
H    -4.42784  -1.08463  -2.00129
H    -1.80680   4.47287  -1.99186
H    -1.72694   3.54523  -3.52797
H    -0.22912   4.02326  -2.67329
H     0.82643   1.09164  -2.10587
H    -0.38678  -1.03863  -2.08316
H     0.28132  -2.69118  -0.20713
H     1.42160  -2.81085  -1.54141
H     2.64083  -4.62797   1.76494
H     1.52556  -4.22299   0.48886
H     3.50851  -0.19150   0.82087
H     2.41535   2.37010   0.28667
H     2.51951   2.42888  -1.49857
H     3.89602   1.79865  -0.54533
