57
Generated by autodE on: 2022-06-26. E = -1209.237129 Ha
C     2.33400   3.06717   2.55855
N     1.77787   1.94079   1.83832
C     2.36857   1.34668   0.79451
O     3.48861   1.68843   0.37068
C     1.55741   0.23319   0.09133
C     2.39552  -1.06523  -0.14172
O     1.79703  -2.14324  -0.34541
N     3.73620  -0.95501  -0.12407
C     4.63153  -2.05808  -0.40294
C     1.06958   0.79999  -1.28099
C     2.09103   0.79535  -2.40920
C    -0.17248  -0.05281  -1.55291
C    -1.04737   0.44940  -2.69197
C    -0.84851  -0.20907  -0.15238
C    -1.87989   0.92387   0.04834
C    -1.51116   2.16620   0.57853
C    -2.43012   3.21664   0.68117
C    -3.74558   3.04669   0.24557
C    -4.12731   1.81582  -0.29869
C    -3.20555   0.77173  -0.39571
C    -1.55937  -1.56704   0.02507
C    -2.37623  -1.76534   1.15358
C    -3.02526  -2.97790   1.38314
C    -2.88582  -4.03186   0.47359
C    -2.09142  -3.84911  -0.65865
C    -1.43532  -2.63141  -0.87746
N     0.31089  -0.06247   0.77929
C     0.39320  -0.86315   1.98887
H     3.34098   3.27359   2.17686
H     2.39773   2.84567   3.63480
H     1.71067   3.96545   2.42431
H     0.84773   1.60598   2.07173
H     4.10609  -0.00863  -0.02146
H     4.06514  -2.99667  -0.38873
H     5.42697  -2.10887   0.35590
H     5.10626  -1.94938  -1.39231
H     0.75547   1.84014  -1.09410
H     1.67737   1.29920  -3.29544
H     3.00656   1.32747  -2.11665
H     2.36269  -0.23066  -2.70391
H     0.21214  -1.04014  -1.82917
H    -1.36685   1.49120  -2.53950
H    -0.49419   0.39860  -3.64206
H    -1.95040  -0.16957  -2.80253
H    -0.48899   2.32292   0.90946
H    -2.10962   4.17186   1.10453
H    -4.46687   3.86341   0.32702
H    -5.15130   1.66540  -0.64982
H    -3.52629  -0.17730  -0.82620
H    -2.51382  -0.95013   1.86519
H    -3.64716  -3.09845   2.27358
H    -3.39654  -4.98248   0.64488
H    -1.97751  -4.65680  -1.38587
H    -0.82751  -2.53225  -1.77524
H     1.34774  -0.65110   2.49137
H     0.35179  -1.95062   1.81041
H    -0.40842  -0.59826   2.69459
