12
Generated by autodE on: 2022-06-26. E = -157.300301 Ha
C     1.96276   0.00626  -0.07235
C     0.51786  -0.36254  -0.22155
C    -0.51786   0.36251   0.22161
C    -1.96276  -0.00624   0.07231
H     2.51971  -0.77143   0.47993
H     2.45653   0.09646  -1.05633
H     2.08738   0.96141   0.46172
H     0.30990  -1.30826  -0.74149
H    -0.30989   1.30822   0.74156
H    -2.51952   0.77119  -0.48054
H    -2.45675  -0.09581   1.05623
H    -2.08736  -0.96167  -0.46126
