45
Generated by autodE on: 2022-06-26. E = -1051.887693 Ha
C     2.16355   3.11903   2.35412
N     2.18944   2.25803   1.19499
C     1.40135   1.15253   1.11585
O     0.51049   0.94157   1.97617
C     1.64651   0.24362   0.00469
C     2.65577   0.42771  -1.00262
O     3.54878   1.31689  -0.94043
N     2.63201  -0.40067  -2.09799
C     3.54170  -0.19559  -3.20612
N     0.77870  -0.88237  -0.03911
C     1.38943  -2.20783   0.16447
C    -0.52974  -0.70258  -0.00129
C    -1.14139   0.54695  -0.49268
C    -0.72580   1.13415  -1.70295
C    -1.35841   2.28036  -2.17695
C    -2.39889   2.86734  -1.44401
C    -2.81599   2.28953  -0.24245
C    -2.19834   1.12855   0.22725
C    -1.42998  -1.74094   0.53428
C    -1.20999  -2.27812   1.81546
C    -2.09389  -3.22232   2.33691
C    -3.19492  -3.64500   1.58427
C    -3.42397  -3.10539   0.31362
C    -2.55636  -2.14451  -0.20468
H     1.13546   3.43589   2.58633
H     2.57089   2.63285   3.26005
H     2.76405   4.01550   2.14881
H     2.96817   2.28180   0.53371
H     1.79398  -0.94095  -2.27878
H     3.41064  -1.01268  -3.92789
H     4.58627  -0.20046  -2.86109
H     3.36695   0.76261  -3.72736
H     0.71439  -3.00100  -0.17644
H     2.31773  -2.24231  -0.41514
H     1.63431  -2.34776   1.22570
H     0.07884   0.67934  -2.28062
H    -1.04081   2.71895  -3.12547
H    -2.88690   3.77113  -1.81607
H    -3.62755   2.74144   0.33201
H    -2.52078   0.67769   1.16678
H    -0.36628  -1.92529   2.40964
H    -1.92620  -3.62540   3.33803
H    -3.88232  -4.38906   1.99320
H    -4.28704  -3.42903  -0.27214
H    -2.73788  -1.71180  -1.19020
