45
Generated by autodE on: 2022-07-28. E = -1051.888602 Ha
C     0.22444   2.15657   2.88398
N     0.62054   0.95761   2.17248
C     1.58882   1.01328   1.19866
O     2.36879   2.00461   1.19436
C     1.71184  -0.07472   0.26215
C     2.73811  -0.17732  -0.75384
O     2.67632  -1.03392  -1.67503
N     3.78117   0.69679  -0.69315
C     4.71281   0.81744  -1.79081
N     0.66723  -1.04993   0.18387
C     1.05666  -2.44208   0.45821
C    -0.57787  -0.69784  -0.07334
C    -0.86797   0.63265  -0.64625
C    -0.17305   1.08676  -1.78321
C    -0.47905   2.32904  -2.33109
C    -1.45732   3.14064  -1.73905
C    -2.14821   2.69310  -0.61059
C    -1.86682   1.43439  -0.07278
C    -1.71968  -1.56715   0.25517
C    -1.81325  -2.20066   1.50930
C    -2.93297  -2.97060   1.82078
C    -3.95942  -3.12945   0.88359
C    -3.87539  -2.49732  -0.36212
C    -2.77127  -1.70477  -0.67058
H     1.08130   2.60801   3.40453
H    -0.20570   2.92252   2.21337
H    -0.53303   1.88885   3.63230
H    -0.07046   0.22024   2.13377
H     3.64305   1.47018  -0.03938
H     5.50647   1.52341  -1.51147
H     4.23745   1.18344  -2.71998
H     5.18046  -0.15143  -2.02301
H     1.20700  -2.57984   1.53728
H     0.29834  -3.13931   0.08625
H     2.00254  -2.61538  -0.06610
H     0.58882   0.45177  -2.23744
H     0.04885   2.67074  -3.22410
H    -1.68378   4.12044  -2.16578
H    -2.91355   3.32073  -0.14914
H    -2.40488   1.07930   0.80777
H    -1.02304  -2.06424   2.24919
H    -3.00641  -3.44599   2.80111
H    -4.83183  -3.73963   1.12815
H    -4.67824  -2.61620  -1.09275
H    -2.70900  -1.20007  -1.63611
