57
Generated by autodE on: 2022-06-26. E = -1209.129811 Ha. Imaginary frequency = -372.6 cm-1
C     0.96251   2.63214   3.00437
N     1.04893   1.39318   2.26056
C     1.80589   1.28318   1.14555
O     2.61784   2.18807   0.84240
C     1.65555   0.03179   0.36964
C     2.89814  -0.68296  -0.01099
O     2.90459  -1.86381  -0.41012
N     4.05265   0.02919   0.04408
C     5.27662  -0.48931  -0.52433
C     0.98394   0.46405  -2.03111
C     2.26516   0.05803  -2.69251
C    -0.16461  -0.33567  -2.04327
C    -1.44576   0.17127  -2.66524
C    -0.73736  -0.43360   0.11801
C    -1.37444   0.93513   0.12332
C    -0.69837   2.17079   0.00223
C    -1.37934   3.38605  -0.04488
C    -2.77470   3.43142   0.01221
C    -3.47259   2.22729   0.09078
C    -2.78773   1.01150   0.13709
C    -1.73825  -1.54613   0.35433
C    -2.39003  -1.61488   1.60090
C    -3.29016  -2.64028   1.88517
C    -3.56374  -3.61896   0.92239
C    -2.92285  -3.56145  -0.31583
C    -2.01180  -2.53604  -0.59598
N     0.51921  -0.75054   0.61947
C     0.71922  -2.10277   1.18486
H     1.96028   2.96772   3.32328
H     0.34449   2.46826   3.89596
H     0.50735   3.43836   2.40368
H     0.36330   0.66766   2.43870
H     3.95743   1.02687   0.23239
H     5.54157  -1.45989  -0.07788
H     6.09040   0.21959  -0.32283
H     5.20362  -0.63445  -1.61681
H     0.82673   1.54696  -1.99352
H     2.17970   0.28887  -3.77170
H     3.13309   0.61586  -2.31491
H     2.46122  -1.01761  -2.60050
H     0.02930  -1.40269  -2.20532
H    -1.57423   1.25169  -2.51054
H    -1.40805   0.00055  -3.75623
H    -2.34319  -0.34087  -2.28742
H     0.37459   2.22056  -0.10689
H    -0.80120   4.30853  -0.13591
H    -3.30500   4.38586  -0.01945
H    -4.56494   2.22152   0.11138
H    -3.38302   0.10383   0.17269
H    -2.18189  -0.85135   2.35391
H    -3.78149  -2.67524   2.86032
H    -4.27208  -4.42183   1.13963
H    -3.12496  -4.32098  -1.07460
H    -1.51240  -2.52248  -1.56258
H     1.71422  -2.15050   1.63079
H     0.62428  -2.89689   0.43418
H    -0.01774  -2.27479   1.97715
