73
Generated by autodE on: 2022-07-03. E = -1738.800583 Ha
C     3.86354   1.49409  -0.87795
N     2.67179   0.69525  -0.67173
C     2.21941  -0.15841  -1.59468
O     2.87200  -0.38398  -2.62456
C     0.93615  -0.96489  -1.24089
C     0.13329  -1.40546  -2.51599
O    -1.10192  -1.45846  -2.48550
N     0.83824  -1.78600  -3.58575
C     0.17902  -2.17119  -4.81777
C     1.53293  -2.29212  -0.65813
C     2.36310  -2.20229   0.62162
C     1.68217  -1.57782   1.83560
C     0.35143  -2.19226   2.24646
C    -0.93739  -1.93129   1.37687
C    -2.12349  -2.13586   2.37186
C    -1.19478  -3.01414   0.40978
N    -1.51435  -3.90410  -0.26522
C    -0.90048  -0.58030   0.62456
C    -0.08587  -0.19211  -0.38580
C    -0.47185   1.25240  -0.80571
C     0.40413   2.36774  -0.14409
C     0.48901   3.69308  -0.83358
O     0.89999   2.17686   0.95270
C    -0.53431   1.43913  -2.33356
C    -1.86219   1.58779  -3.01207
O     0.51393   1.47671  -2.95335
N    -1.75053   1.51416  -0.14471
C    -1.90393   0.55362   0.95845
C    -1.50807   1.24342   2.29564
O    -1.02710   0.61735   3.24523
N    -1.74653   2.56165   2.33569
C    -1.26899   3.38543   3.42704
C    -3.36392   0.09354   0.95619
C    -3.81082  -0.65030  -0.14839
C    -5.13153  -1.09475  -0.21430
C    -6.02461  -0.79593   0.82082
C    -5.58764  -0.04456   1.91452
C    -4.26386   0.40152   1.98079
H     4.77769   0.87866  -0.84763
H     3.82206   2.00069  -1.85384
H     3.91608   2.24980  -0.08405
H     2.17232   0.80648   0.20305
H     1.82335  -1.50602  -3.57867
H    -0.35290  -1.32160  -5.27920
H     0.93234  -2.54161  -5.52440
H    -0.55548  -2.96805  -4.63127
H     0.73337  -3.02673  -0.54417
H     2.17684  -2.69515  -1.45164
H     3.30398  -1.66646   0.42202
H     2.65259  -3.23643   0.87422
H     2.36112  -1.68842   2.69699
H     1.55079  -0.49335   1.70934
H     0.45211  -3.28314   2.36160
H     0.10209  -1.79209   3.23730
H    -1.93771  -3.07551   2.91154
H    -2.14839  -1.31402   3.09267
H    -3.09061  -2.22284   1.86896
H     0.74652   4.47329  -0.10606
H     1.28897   3.62742  -1.58953
H    -0.44206   3.94363  -1.36102
H    -2.53916   0.76275  -2.74783
H    -2.33894   2.53016  -2.69425
H    -1.70843   1.60874  -4.09787
H    -2.52405   1.41954  -0.79502
H    -1.96037   2.99065   1.43874
H    -1.69955   4.39062   3.33606
H    -0.16847   3.46685   3.41376
H    -1.56981   2.95546   4.39277
H    -3.11140  -0.90668  -0.94694
H    -5.46230  -1.68307  -1.07325
H    -7.05795  -1.14716   0.77351
H    -6.27851   0.19615   2.72578
H    -3.93868   0.97492   2.84941
