35
Generated by autodE on: 2022-07-27. E = -878.731508 Ha
C     0.31174   2.97676   2.17521
N    -0.08446   1.99675   1.18118
C    -0.12738   0.68870   1.48786
O    -0.06460   0.25129   2.63689
C    -0.41050  -0.24301   0.33024
N     0.13805  -0.07997  -0.85293
C     1.24996   0.67655  -1.25598
C     2.36704   0.75485  -0.34096
C     3.64822   1.42449  -0.77540
O     2.30176   0.25743   0.79825
C     1.23352   1.15533  -2.62210
C    -0.00945   0.87981  -3.45167
O     2.17156   1.78740  -3.13174
C    -1.38110  -1.31854   0.52044
C    -1.30531  -2.49553  -0.25393
C    -2.26346  -3.49719  -0.11184
C    -3.30578  -3.34573   0.80834
C    -3.38346  -2.18786   1.59087
C    -2.42922  -1.18270   1.45641
H     0.19776   3.98134   1.75060
H     1.36195   2.83179   2.47923
H    -0.32029   2.89339   3.07059
H    -0.02182   2.26295   0.20213
H    -0.28445  -0.65002  -1.59131
H     4.37845   1.32342   0.03896
H     4.04460   0.98382  -1.70068
H     3.47181   2.48972  -0.98737
H    -0.17488  -0.20399  -3.58287
H    -0.91298   1.29787  -2.98087
H     0.12524   1.33044  -4.44306
H    -0.47403  -2.64565  -0.94607
H    -2.18722  -4.40672  -0.71123
H    -4.05317  -4.13406   0.92258
H    -4.19627  -2.06672   2.30999
H    -2.50560  -0.28171   2.06477
