46
Generated by autodE on: 2022-10-21. E = -1259.293116 Ha
C     1.05261   4.35297  -0.05383
O     1.09455   2.95941   0.22437
C     0.35662   2.10208  -0.62256
O    -1.00736   2.45115  -0.57875
C    -1.61533   2.47949   0.70849
C     0.83279   2.20175  -2.08432
C    -0.13658   1.75873  -3.18022
C    -0.63292   0.31030  -3.15405
C    -1.73674   0.02677  -2.11821
C    -1.29104  -0.89354  -0.93566
C    -0.99421  -2.20965  -1.55123
N    -0.73822  -3.19161  -2.11011
C    -2.43831  -1.03150  -0.01352
N    -3.35150  -1.05809   0.69897
C    -0.06889  -0.44516  -0.14087
C     0.61139   0.71085  -0.04555
C     1.73858   0.41363   0.99346
C     3.02371   1.17226   1.09493
O     1.02297   0.41111   2.30505
C     0.25543  -0.69366   2.27263
O    -0.51960  -1.03086   3.12301
C     0.60969  -1.37393   0.90524
C     0.38129  -2.87323   0.89829
C     1.55797  -3.74411   0.61743
O    -0.74204  -3.27343   1.13782
O     1.96601  -0.96337   0.80551
H     1.79972   4.64070  -0.81155
H     1.29160   4.86746   0.88742
H     0.05438   4.67148  -0.39032
H    -2.67543   2.71340   0.54501
H    -1.54195   1.50677   1.22064
H    -1.16724   3.25249   1.35162
H     1.08038   3.25583  -2.27215
H     1.77798   1.64116  -2.15498
H    -1.00666   2.43441  -3.18846
H     0.38394   1.92169  -4.13762
H     0.21987  -0.37635  -3.02122
H    -1.04482   0.07914  -4.14728
H    -2.58341  -0.49232  -2.58733
H    -2.11797   0.95430  -1.68228
H     3.44160   1.32924   0.09178
H     2.86566   2.14212   1.57274
H     3.72337   0.57044   1.69226
H     2.34496  -3.55246   1.36464
H     1.97986  -3.47765  -0.36526
H     1.25745  -4.79882   0.63521
