30
Generated by autodE on: 2022-10-21. E = -725.842634 Ha
C    -1.78886   2.82532  -0.90406
O    -2.12369   1.44388  -0.84600
C    -1.13834   0.56021  -1.32528
O    -0.80173   0.83158  -2.66659
C    -1.84421   0.65504  -3.62123
C     0.10294   0.65400  -0.52485
C     0.90363   0.37270   0.33682
C     1.49351  -0.41953   1.42237
C     2.08094   0.42009   2.48574
N     2.50942   1.07608   3.33898
C     2.55004  -1.30147   0.87906
N     3.34832  -2.02239   0.44877
C     0.32535  -1.29640   2.02647
C    -0.51296  -2.05558   0.98332
C    -1.74883  -1.34007   0.36963
C    -1.67322  -0.87173  -1.09774
H    -2.62785   3.37411  -0.45626
H    -1.64341   3.16392  -1.94198
H    -0.87104   3.03782  -0.32808
H    -1.50398   1.13854  -4.54718
H    -2.03545  -0.41087  -3.82702
H    -2.77988   1.13366  -3.29188
H    -0.30646  -0.60849   2.60705
H     0.79636  -1.99599   2.73186
H     0.14278  -2.44053   0.18413
H    -0.88013  -2.94870   1.51041
H    -2.58496  -2.05327   0.41756
H    -2.05098  -0.49254   1.00613
H    -1.04194  -1.55442  -1.68702
H    -2.68296  -0.89426  -1.53352
