46
Generated by autodE on: 2022-10-21. E = -1259.215287 Ha. Imaginary frequency = -358.6 cm-1
C     1.79803   4.22494  -0.53068
O     1.55568   2.85548  -0.23870
C     0.40005   2.26218  -0.78916
O    -0.76200   2.96328  -0.40926
C    -1.03177   3.02910   0.98676
C     0.45503   2.26698  -2.32621
C    -0.80585   1.88137  -3.10423
C    -1.21963   0.40323  -3.18723
C    -2.11175  -0.13733  -2.05822
C    -1.36304  -1.02505  -0.99768
C    -0.78122  -2.20124  -1.68143
N    -0.32202  -3.09182  -2.26225
C    -2.37566  -1.49575  -0.02879
N    -3.23038  -1.82128   0.68118
C    -0.30222  -0.21126  -0.35327
C     0.33321   0.85387  -0.26839
C     1.68811   0.37289   1.58439
C     2.82381   1.29487   1.77095
O     0.66221   0.37809   2.43958
C    -0.05008  -0.84494   2.29443
O    -1.05567  -1.05737   2.92009
C     0.71879  -1.54609   1.29550
C     0.66159  -2.95847   0.93384
C     1.86433  -3.54036   0.24630
O    -0.34741  -3.60813   1.19579
O     1.88615  -0.84295   1.11505
H     0.87061   4.81731  -0.50526
H     2.47622   4.59529   0.25128
H     2.28589   4.35844  -1.51042
H    -1.88277   3.71233   1.10903
H    -0.17013   3.42077   1.55001
H    -1.30528   2.03945   1.38866
H     0.70843   3.29752  -2.61552
H     1.30612   1.63426  -2.62243
H    -1.65557   2.48032  -2.74029
H    -0.62599   2.21672  -4.13806
H    -0.32689  -0.23217  -3.31323
H    -1.79537   0.28286  -4.11675
H    -2.91565  -0.76690  -2.46556
H    -2.58203   0.67960  -1.49242
H     3.44478   1.31852   0.86953
H     3.41862   0.91179   2.61898
H     2.46078   2.29925   2.00610
H     2.20439  -2.88972  -0.57244
H     1.61724  -4.53825  -0.13634
H     2.69237  -3.61685   0.97106
