52
Generated by autodE on: 2022-06-26. E = -1524.463546 Ha
C    -0.10387  -1.90430   3.13088
N     0.65160  -1.20231   2.11159
C     0.95048  -1.72354   0.92256
O     0.76523  -2.88494   0.55942
C     1.54628  -0.71073  -0.09690
C     2.76770  -1.32835  -0.64119
N     3.74784  -1.80349  -1.03611
O     1.90091   0.49658   0.54507
C     1.07854   1.59569   0.16628
C     1.93447   2.59315  -0.67431
C     3.42138   2.43701  -0.54757
O     1.41020   3.47737  -1.31508
C     0.73555   2.32573   1.49007
O     0.96459   1.83422   2.57444
O     0.26101   3.53935   1.28590
C    -0.15021   4.27872   2.44977
C    -0.15231   0.94213  -0.56681
C    -0.91633   1.84520  -1.55018
C    -1.22362   0.53431   0.46360
O    -1.54431   1.29566   1.36021
C    -1.95809  -0.74214   0.29807
O    -2.93234  -0.87863   1.20094
C    -3.42154  -2.17445   1.58103
C    -1.65124  -1.62529  -0.70506
O    -2.48402  -2.64859  -0.97065
C    -1.96883  -3.98498  -1.11123
C    -0.47615  -1.42613  -1.56675
O    -0.29744  -2.14044  -2.54086
C     0.51851  -0.30046  -1.23379
C     1.26209   0.05118  -2.52698
H    -0.35400  -2.90861   2.77084
H     0.48157  -1.98995   4.05854
H    -1.03020  -1.35115   3.34658
H     0.90911  -0.22697   2.28598
H     3.70396   2.45695   0.51747
H     3.91604   3.25242  -1.08963
H     3.74886   1.46326  -0.94144
H     0.69655   4.40724   3.13774
H    -0.96662   3.74481   2.95617
H    -0.49691   5.24960   2.07998
H    -1.31610   2.71442  -1.01291
H    -1.75726   1.27775  -1.97534
H    -0.28052   2.19928  -2.36508
H    -3.89061  -2.03061   2.56281
H    -2.59538  -2.89383   1.66679
H    -4.16491  -2.54017   0.86176
H    -2.74171  -4.65316  -0.70706
H    -1.79114  -4.21995  -2.16887
H    -1.04099  -4.10572  -0.53748
H     2.02016   0.82804  -2.37673
H     1.76161  -0.83977  -2.92312
H     0.55251   0.39865  -3.28728
