26
Generated by autodE on: 2022-06-26. E = -834.918484 Ha
C     3.18742   2.46564   0.76458
N     2.76871   1.24591   0.09858
C     1.60121   0.65660   0.39068
O     0.77640   1.11475   1.19204
C     1.34580  -0.65982  -0.24774
C     2.38637  -1.55002  -0.59291
N     3.27387  -2.24386  -0.89862
O     0.14980  -1.20804  -0.23563
C    -1.03964  -0.69228  -0.07848
C    -2.13011  -1.67911   0.00030
C    -1.74064  -3.13130   0.04689
O    -3.29636  -1.29889   0.03148
C    -1.26396   0.76207  -0.30507
O    -0.69777   1.35491  -1.20405
O    -2.17301   1.28483   0.49864
C    -2.47250   2.67991   0.30714
H     2.37143   3.20261   0.75524
H     3.46835   2.27643   1.81337
H     4.05287   2.87847   0.23341
H     3.40076   0.80604  -0.56452
H    -1.13544  -3.33598   0.94436
H    -1.12431  -3.39556  -0.82669
H    -2.65112  -3.74305   0.06330
H    -3.23474   2.92665   1.05409
H    -1.56613   3.28049   0.46796
H    -2.85812   2.85204  -0.70742
