26
Generated by autodE on: 2022-07-27. E = -834.914304 Ha
C    -0.67716  -3.91731   1.79818
N    -0.34627  -2.66913   1.14129
C     0.41272  -2.60596   0.03417
O     0.94438  -3.56955  -0.52970
C     0.61300  -1.24754  -0.53315
C     1.33215  -1.09965  -1.73821
N     1.87935  -0.98659  -2.75191
O     0.00006  -0.26364   0.06276
C    -0.15025   1.02365  -0.06127
C     0.71584   1.88995  -0.91227
C     2.20490   1.65890  -0.86486
O     0.22414   2.82329  -1.52563
C    -1.17013   1.52636   0.88899
O    -1.78497   0.79671   1.64556
O    -1.30904   2.84696   0.83263
C    -2.26946   3.43187   1.72637
H    -1.71448  -4.22296   1.58375
H    -0.00026  -4.70249   1.44132
H    -0.56353  -3.81209   2.88666
H    -0.76390  -1.81047   1.49094
H     2.51165   0.84683  -0.19203
H     2.65462   2.60106  -0.51222
H     2.58853   1.46144  -1.87733
H    -1.95483   3.28553   2.76996
H    -3.25971   2.98008   1.57360
H    -2.29375   4.49956   1.48176
