52
Generated by autodE on: 2022-06-26. E = -1524.384527 Ha. Imaginary frequency = -257.9 cm-1
C     0.20432  -2.98807   2.61677
N     0.73622  -1.87333   1.86022
C     1.43361  -2.01635   0.72472
O     1.76162  -3.08371   0.19595
C     1.83257  -0.72368   0.06344
C     2.93506  -0.81722  -0.83303
N     3.81981  -0.96588  -1.57375
O     1.53379   0.34842   0.75521
C     1.13344   1.60187   0.61338
C     1.99609   2.64351  -0.01154
C     3.33620   2.23252  -0.54748
O     1.60365   3.79898  -0.07690
C     0.15262   1.89580   1.71019
O    -0.20280   1.03279   2.49546
O    -0.31267   3.13068   1.70674
C    -1.37868   3.41413   2.63239
C    -0.30210   1.10350  -1.35423
C    -0.06306   2.34337  -2.16105
C    -1.52411   1.13029  -0.49262
O    -2.14077   2.17566  -0.30941
C    -1.98637  -0.12114   0.13874
O    -2.93734   0.08002   1.07385
C    -2.99028  -0.74260   2.24612
C    -1.55428  -1.33808  -0.32085
O    -2.13554  -2.44411   0.16167
C    -1.73578  -3.78793  -0.14138
C    -0.53997  -1.38546  -1.40858
O    -0.34010  -2.41937  -2.03615
C     0.19706  -0.13854  -1.77121
C     1.04838  -0.23364  -2.99975
H    -0.88867  -3.05347   2.50652
H     0.65644  -3.92038   2.25908
H     0.43829  -2.86247   3.68420
H     0.46437  -0.92732   2.13840
H     3.86034   1.54489   0.13081
H     3.93486   3.13748  -0.71048
H     3.19748   1.72564  -1.51480
H    -1.02968   3.28720   3.66644
H    -2.22538   2.74236   2.43562
H    -1.66162   4.45588   2.44697
H    -0.30550   3.24156  -1.58386
H    -0.72746   2.31669  -3.04309
H     0.96712   2.41141  -2.52739
H    -3.57573  -0.17407   2.98067
H    -1.98164  -0.91582   2.64487
H    -3.48259  -1.70234   2.04325
H    -2.24418  -4.40684   0.60907
H    -2.07145  -4.07402  -1.14687
H    -0.65115  -3.92198  -0.06128
H     1.85008   0.51448  -3.00191
H     1.47958  -1.23362  -3.11320
H     0.41598  -0.03761  -3.88385
