21
Generated by autodE on: 2022-06-02. E = -797.432655 Ha
C    -2.94813  -0.76498   1.35049
C    -2.00253   0.10879   0.57823
O    -2.21631   1.29591   0.36881
C    -0.77265  -0.54294   0.07330
C     0.37578   0.01256  -0.35193
C     0.77810   1.44966  -0.44817
F     2.08697   1.55469  -0.75288
F     0.59404   2.11342   0.70703
F     0.09947   2.10959  -1.40180
C     1.33591  -1.17525  -0.60214
C     1.67968  -1.76358   0.78666
C     0.54440  -2.32590   1.20801
C    -0.47156  -2.06792   0.07222
O     0.38893  -2.14266  -1.07578
H    -2.40796  -1.29756   2.15077
H    -3.76226  -0.16332   1.77401
H    -3.36454  -1.53625   0.68086
H     2.15728  -1.00630  -1.30468
H     2.64196  -1.65839   1.28558
H     0.31239  -2.81839   2.15132
H    -1.33095  -2.74023  -0.00555
