45
Generated by autodE on: 2022-06-02. E = -1407.591271 Ha. Imaginary frequency = -287.5 cm-1
C    -4.56219   1.04710   0.70247
C    -3.99458  -0.25077   0.20356
O    -4.69379  -1.15118  -0.24375
C    -2.52386  -0.39612   0.27727
C    -1.71980  -1.26768  -0.36251
C    -2.04589  -2.34696  -1.34460
F    -2.82841  -1.91807  -2.34982
F    -0.91703  -2.82480  -1.90758
F    -2.66839  -3.39021  -0.76904
C    -0.28244  -0.83706  -0.00554
O    -0.49717  -0.37622   1.33731
C    -1.54412   0.55294   1.01047
C    -0.83365   1.40775  -0.06908
C     0.59012   2.55714   1.33714
C     0.72859   3.87014   0.67914
C     2.09968   4.46747   0.46001
O    -0.28243   4.52648   0.43181
N     1.54108   1.59599   1.39924
C     2.20588   1.03853   0.35506
C     2.39903   1.77584  -0.84304
N     2.57693   2.33090  -1.85407
C     2.91824  -0.23563   0.52222
C     3.44758  -0.89119  -0.60868
C     4.05432  -2.13978  -0.48894
C     4.15079  -2.76352   0.75981
C     3.63806  -2.11830   1.88912
C     3.03241  -0.86648   1.77708
C    -0.05006   0.49689  -0.73715
H    -5.64093   1.09065   0.50619
H    -4.05003   1.89671   0.22141
H    -4.37659   1.13738   1.78586
H     0.49778  -1.60159  -0.06702
H    -1.92844   1.06567   1.89645
H    -1.23869   2.34282  -0.45130
H    -0.08509   2.56766   2.19446
H     2.25009   4.67607  -0.60979
H     2.92205   3.83896   0.82272
H     2.11866   5.43056   0.99465
H     1.38013   0.93420   2.15757
H     3.36784  -0.42300  -1.59149
H     4.45223  -2.63073  -1.37993
H     4.62635  -3.74225   0.85266
H     3.71666  -2.58759   2.87233
H     2.66758  -0.38369   2.68560
H     0.35393   0.56771  -1.74363
