41
Generated by autodE on: 2022-06-18. E = -770.879426 Ha
C    -3.60340   3.13521  -0.35459
C    -2.80196   2.17012  -0.84892
C    -2.60896   1.97821  -2.32978
C    -2.09055   1.27544   0.07076
C    -1.26898   0.27430  -0.28757
C    -0.56541  -0.61693   0.69512
N     0.88001  -0.69542   0.38497
C     1.72969   0.39967   0.32312
C     1.39874   1.59677   0.99678
C     2.26702   2.68833   0.96028
C     3.47851   2.62548   0.26332
C     3.80931   1.43881  -0.40127
C     2.95358   0.33783  -0.37861
N     1.16635  -1.83287  -0.34365
C     0.16702  -2.63938  -0.27952
C     0.16089  -3.96947  -0.94534
C    -0.96085  -2.12569   0.60855
C    -0.82593  -2.78187   1.99542
C    -2.35723  -2.37881   0.04067
H    -4.14760   3.81844  -1.01271
H    -3.73448   3.26414   0.72421
H    -3.19057   2.71116  -2.90643
H    -1.54644   2.08173  -2.60617
H    -2.91721   0.96635  -2.64153
H    -2.25649   1.45721   1.13955
H    -1.06881   0.06549  -1.34317
H    -0.72203  -0.24242   1.71589
H     0.46563   1.67241   1.55351
H     1.98749   3.60305   1.48974
H     4.15224   3.48459   0.23895
H     4.75065   1.36569  -0.95265
H     3.21761  -0.58053  -0.90021
H    -0.02292  -4.77314  -0.21271
H     1.11893  -4.15820  -1.44902
H    -0.64954  -4.02883  -1.69111
H     0.15890  -2.57197   2.43980
H    -1.60112  -2.39169   2.67398
H    -0.94822  -3.87357   1.92630
H    -3.11885  -1.87613   0.65632
H    -2.57769  -3.45732   0.04398
H    -2.45799  -2.01245  -0.99092
