23
Generated by autodE on: 2022-06-18. E = -351.521383 Ha
C    -3.76377  -0.33241   0.14277
C    -2.57139   0.22469  -0.16326
C    -2.48566   1.52623  -0.91870
C    -1.33204  -0.43768   0.23846
C    -0.07685   0.01454  -0.00825
C     1.11981  -0.68453   0.41373
C     2.40551  -0.30257   0.20716
C     3.54676  -1.14097   0.70973
C     2.81369   0.94831  -0.51804
H    -3.82265  -1.27769   0.69113
H    -4.70637   0.14112  -0.14561
H    -1.94694   2.29050  -0.33419
H    -3.48568   1.91508  -1.15711
H    -1.92855   1.40193  -1.86220
H    -1.44927  -1.38093   0.78554
H     0.04873   0.95396  -0.55344
H     0.95270  -1.62204   0.95782
H     3.20072  -2.04445   1.23299
H     4.20257  -1.44965  -0.12424
H     4.18492  -0.56009   1.39980
H     1.96705   1.55092  -0.87115
H     3.43812   1.58245   0.13585
H     3.44315   0.69593  -1.38975
