41
Generated by autodE on: 2022-06-18. E = -770.795322 Ha. Imaginary frequency = -385.7 cm-1
C    -1.52796   3.73326  -0.45729
C    -1.62656   2.43565  -0.82965
C    -1.77952   2.05406  -2.28018
C    -1.53963   1.38118   0.16914
C    -1.57614   0.04279  -0.09400
C    -1.40217  -0.98074   0.88733
N     1.32480  -0.76333   1.19571
C     1.59230   0.43595   0.55609
C     1.61115   1.59713   1.35860
C     1.81593   2.85098   0.78874
C     2.00207   2.98262  -0.59345
C     1.98264   1.83510  -1.39744
C     1.77836   0.57475  -0.83770
N     1.33198  -1.82907   0.49205
C     0.66486  -2.75067   0.07172
C     0.91368  -4.06181  -0.55634
C    -1.43356  -2.35189   0.62345
C    -1.50730  -3.28937   1.81113
C    -2.06541  -2.88328  -0.64887
H    -1.57219   4.54306  -1.19059
H    -1.39662   4.01122   0.59265
H    -1.83522   2.94491  -2.92148
H    -0.92757   1.43991  -2.61569
H    -2.68855   1.45197  -2.44322
H    -1.41239   1.70739   1.20683
H    -1.69788  -0.27690  -1.13215
H    -1.25361  -0.65731   1.92061
H     1.45627   1.48819   2.43413
H     1.82245   3.73776   1.42742
H     2.16105   3.96657  -1.03944
H     2.12493   1.92436  -2.47758
H     1.76138  -0.31286  -1.47337
H     0.38297  -4.85215  -0.00459
H     1.98896  -4.29412  -0.57031
H     0.52847  -4.06552  -1.58707
H    -0.96438  -2.88528   2.67882
H    -2.56132  -3.43708   2.11058
H    -1.10367  -4.28715   1.58105
H    -3.16543  -2.80661  -0.57996
H    -1.82716  -3.94579  -0.79816
H    -1.74919  -2.33541  -1.54740
