41
Generated by autodE on: 2022-06-17. E = -791.010387 Ha
C    -1.59903   1.75702   2.72404
O    -1.62277   1.03970   1.47966
C    -0.82025   1.49205   0.51575
O    -0.10740   2.46905   0.63421
C    -0.87144   0.64268  -0.72056
N    -1.97049   0.14357  -1.13222
C    -1.73286  -0.60616  -2.38894
C    -2.37911  -1.98577  -2.26662
C    -2.37970   0.17834  -3.53609
C    -0.18830  -0.69501  -2.52995
C     0.38069   0.37730  -1.55263
C     0.82456   1.65301  -2.29930
C     1.52824  -0.14701  -0.71932
C     1.42748  -0.62819   0.53528
C     2.54449  -1.11959   1.32437
C     2.49900  -1.50587   2.62219
C     3.73071  -2.00903   3.32149
C     1.26002  -1.46975   3.47465
H    -1.92660   2.79586   2.57529
H    -2.29276   1.22975   3.38847
H    -0.58429   1.74900   3.14736
H    -2.18163  -2.57561  -3.17541
H    -1.96894  -2.53480  -1.40481
H    -3.46954  -1.90095  -2.13933
H    -3.45678   0.31664  -3.35458
H    -2.25558  -0.37003  -4.48247
H    -1.91781   1.17048  -3.64892
H     0.15499  -1.69259  -2.22285
H     0.14612  -0.52715  -3.56280
H     0.00543   2.05647  -2.91223
H     1.14897   2.43102  -1.59512
H     1.66705   1.41206  -2.96619
H     2.51072  -0.12354  -1.20645
H     0.44285  -0.66198   1.01063
H     3.51121  -1.16830   0.80890
H     3.56752  -3.02818   3.71584
H     4.60663  -2.03039   2.65648
H     3.97109  -1.37835   4.19615
H     0.39353  -1.00931   2.98171
H     1.45783  -0.90946   4.40508
H     0.97665  -2.49070   3.78709
