23
Generated by autodE on: 2022-06-17. E = -351.521383 Ha
C     3.62148   1.03917  -0.31882
C     2.57162   0.19763  -0.19464
C     2.76833  -1.29484  -0.11719
C     1.21247   0.73137  -0.13259
C     0.07858  -0.00322  -0.00819
C    -1.24650   0.57975   0.04859
C    -2.42556  -0.07964   0.17737
C    -3.72614   0.67189   0.21866
C    -2.55652  -1.57221   0.28819
H     4.64886   0.66768  -0.36746
H     3.47482   2.12226  -0.37440
H     2.23766  -1.80862  -0.93597
H     2.36201  -1.70098   0.82406
H     3.83340  -1.55981  -0.17612
H     1.12374   1.82278  -0.19332
H     0.15843  -1.09201   0.05233
H    -1.28490   1.67360  -0.02147
H    -4.26922   0.46333   1.15802
H    -3.58163   1.75899   0.13415
H    -4.39379   0.34360  -0.59826
H    -3.07735  -1.84094   1.22421
H    -1.59630  -2.10338   0.26719
H    -3.18371  -1.96265  -0.53277
