18
Generated by autodE on: 2022-06-17. E = -439.401335 Ha
C     3.24663   1.09289  -0.08552
O     1.92777   0.85649   0.43271
C     1.36698  -0.32198   0.12408
O     1.90172  -1.18002  -0.55766
C     0.09249  -0.51904   0.81943
N    -1.00839  -0.26200   0.31958
C    -2.19006  -0.04387  -0.09887
C    -2.92428  -1.09636  -0.87744
C    -2.86234   1.26952   0.17609
H     3.94777   0.32833   0.27955
H     3.23894   1.08694  -1.18518
H     3.54173   2.08226   0.28300
H    -3.87185  -1.34336  -0.36952
H    -2.32530  -2.01000  -0.98867
H    -3.18366  -0.71267  -1.87855
H    -3.12130   1.76706  -0.77367
H    -2.22107   1.93720   0.76670
H    -3.80661   1.09870   0.72029
