41
Generated by autodE on: 2022-06-17. E = -790.907480 Ha. Imaginary frequency = -378.1 cm-1
C    -0.42757   2.97708   2.45691
O    -0.67002   1.91193   1.52535
C    -1.01730   2.27411   0.27854
O    -1.15032   3.43184  -0.09111
C    -1.03463   1.13835  -0.61465
N    -1.86323   0.34627  -1.04027
C    -2.02383  -0.69839  -1.83308
C    -2.17268  -2.04483  -1.17881
C    -2.70651  -0.47695  -3.15362
C     0.26798  -0.75258  -2.46680
C     0.89265   0.25147  -1.75387
C     1.24203   1.55750  -2.43724
C     1.49995   0.02444  -0.43452
C     1.46680  -1.11305   0.30369
C     2.05047  -1.21815   1.62507
C     2.03081  -2.29425   2.45189
C     2.68409  -2.24132   3.80483
C     1.37303  -3.60441   2.11921
H     0.37814   3.63131   2.09309
H    -1.33918   3.57189   2.61333
H    -0.12790   2.49328   3.39378
H    -1.88358  -2.83589  -1.88568
H    -1.55245  -2.12198  -0.27485
H    -3.22681  -2.22165  -0.89855
H    -3.80428  -0.52184  -3.03502
H    -2.41894  -1.27238  -3.85626
H    -2.44090   0.49985  -3.58210
H     0.30009  -1.78767  -2.12602
H     0.03027  -0.59543  -3.52068
H     0.54962   1.77152  -3.26487
H     1.21623   2.40994  -1.74166
H     2.26259   1.51082  -2.86031
H     2.00354   0.89672   0.00003
H     0.95624  -1.99190  -0.10102
H     2.55669  -0.31477   1.98816
H     3.45873  -3.02399   3.90037
H     3.15259  -1.26552   4.00199
H     1.94966  -2.44190   4.60618
H     0.60611  -3.85235   2.87479
H     2.11018  -4.42667   2.15260
H     0.89291  -3.61726   1.13196
