43
Generated by autodE on: 2022-06-21. E = -1202.969659 Ha
C     3.01288   3.18765  -0.20550
O     2.71371   1.83015   0.16963
C     1.50513   1.37735  -0.12461
O     0.64343   2.02692  -0.67541
C     1.32119  -0.05741   0.37908
C     2.52104  -0.90577  -0.11513
C     3.20991  -1.78638   0.87493
O     2.86180  -0.79592  -1.27588
N     1.24330   0.03002   1.84834
C     0.03908  -0.15957   2.22049
C    -0.96279  -0.42311   1.11590
O    -1.91083  -1.43966   1.36156
C    -1.55987  -2.46028   2.29666
C    -1.84591   0.81720   0.89518
O    -2.08355   1.56919   1.82581
C    -2.45474   0.98829  -0.44082
C    -3.67345   1.85220  -0.53675
C    -1.83733   0.48070  -1.54511
C    -2.36010   0.74511  -2.92160
C    -0.55103  -0.25724  -1.45270
O     0.06892  -0.57526  -2.45474
C    -0.02215  -0.72876  -0.08745
O     0.27303  -2.10972  -0.12923
C    -0.60584  -2.98443  -0.83823
H     2.32858   3.87932   0.30534
H     4.04607   3.36429   0.11258
H     2.91902   3.30727  -1.29376
H     3.92541  -2.43880   0.35807
H     3.74402  -1.14797   1.59776
H     2.47906  -2.37767   1.44430
H    -0.25008  -0.10891   3.27417
H    -2.25131  -3.29458   2.11675
H    -0.52917  -2.81402   2.14890
H    -1.68504  -2.10943   3.33402
H    -4.48745   1.31774  -1.05202
H    -3.46180   2.75643  -1.13177
H    -4.01971   2.16188   0.45646
H    -3.44736   0.58576  -2.96878
H    -2.17823   1.79838  -3.19924
H    -1.86418   0.10856  -3.66368
H    -1.65427  -2.66820  -0.75283
H    -0.49554  -3.97651  -0.38016
H    -0.32483  -3.04081  -1.90111
