43
Generated by autodE on: 2022-06-21. E = -1202.915354 Ha. Imaginary frequency = -439.0 cm-1
C     2.74496   2.85423  -2.02908
O     2.49829   1.66895  -1.26006
C     1.70578   1.79479  -0.19303
O     1.15947   2.84431   0.11532
C     1.51896   0.54910   0.56547
C     2.23681  -0.73176   0.46852
C     3.17400  -0.96607  -0.68624
O     2.05449  -1.60873   1.31912
N     0.70198   0.67969   1.62818
C    -0.31028   0.26402   2.12128
C    -1.52748  -0.92162   0.94329
O    -2.03444  -1.77596   1.87595
C    -1.16408  -2.66867   2.58534
C    -2.41303   0.27174   0.71739
O    -3.38388   0.45154   1.43877
C    -2.02142   1.22604  -0.34997
C    -2.70363   2.56022  -0.36600
C    -1.11334   0.85982  -1.29146
C    -0.74970   1.76148  -2.42967
C    -0.47738  -0.49468  -1.29272
O     0.15496  -0.88425  -2.28067
C    -0.74180  -1.37674  -0.14176
O    -0.31572  -2.62799  -0.05503
C     0.34895  -3.36506  -1.09295
H     3.21055   3.62753  -1.40152
H     3.42943   2.55171  -2.82978
H     1.81030   3.24169  -2.45641
H     2.64453  -0.84528  -1.64236
H     3.99690  -0.23728  -0.67773
H     3.57351  -1.98471  -0.60124
H    -0.79763   0.28628   3.10161
H    -1.16722  -3.66485   2.12191
H    -0.13175  -2.29168   2.61101
H    -1.55671  -2.73902   3.60944
H    -3.45724   2.62349   0.42814
H    -1.96336   3.36339  -0.21375
H    -3.19376   2.75068  -1.33382
H    -1.55019   1.75621  -3.19039
H    -0.63298   2.79902  -2.08905
H     0.17527   1.43190  -2.91624
H    -0.27276  -3.40621  -1.99619
H     0.47514  -4.37198  -0.67627
H     1.32623  -2.93284  -1.32999
