47
Generated by autodE on: 2022-06-20. E = -1056.859598 Ha
C    -0.19900  -3.39549  -0.33489
C    -0.75168  -2.42064   0.40071
C    -1.78189  -2.70622   1.46001
C    -0.38802  -0.96052   0.23630
C    -1.31460  -0.16829  -0.70755
C    -2.67827   0.16870  -0.17182
C    -3.81075  -0.47079  -0.69127
C    -5.07714  -0.21567  -0.15600
C    -5.22073   0.69225   0.89691
C    -4.09330   1.34352   1.41176
C    -2.82824   1.08278   0.88231
O    -0.58123   1.05291  -0.96762
C     0.80229   0.84864  -0.78741
C     1.51265   1.11906  -2.04928
N     2.03783   1.29423  -3.06838
C     1.31231   1.76298   0.34152
O     0.63507   2.06891   1.29556
O     2.57907   2.10185   0.16342
C     3.21817   2.83660   1.22369
C     0.98616  -0.66532  -0.37697
C     2.15609  -0.94347   0.51246
C     3.35073  -1.43017   0.13101
C     3.71313  -1.78206  -1.28521
C     4.44922  -1.64293   1.13622
H     0.56553  -3.20361  -1.09147
H    -0.49971  -4.43796  -0.19415
H    -2.01576  -3.77896   1.52001
H    -1.41992  -2.36939   2.44678
H    -2.71647  -2.15499   1.26776
H    -0.43854  -0.47662   1.22524
H    -1.41659  -0.72901  -1.65146
H    -3.69595  -1.17942  -1.51526
H    -5.95330  -0.72342  -0.56621
H    -6.20966   0.89591   1.31456
H    -4.20176   2.05753   2.23179
H    -1.94868   1.58895   1.28369
H     2.69259   3.78556   1.39742
H     3.21975   2.23573   2.14397
H     4.24317   3.02061   0.88429
H     1.07511  -1.21491  -1.32176
H     2.00684  -0.69583   1.56969
H     4.54075  -1.13894  -1.63135
H     2.88384  -1.66980  -1.99535
H     4.08312  -2.82021  -1.33964
H     5.34125  -1.05122   0.86557
H     4.77004  -2.69932   1.14611
H     4.13970  -1.36133   2.15332
