23
Generated by autodE on: 2022-06-20. E = -351.521381 Ha
C     3.55218  -1.23881  -0.38328
C     2.55774  -0.35911  -0.13216
C     2.85279   1.06548   0.26231
C     1.16330  -0.78338  -0.23987
C     0.07867  -0.00241  -0.00636
C    -1.28544  -0.47524  -0.12672
C    -2.41968   0.23573   0.09630
C    -3.77110  -0.39886  -0.07322
C    -2.44892   1.67713   0.51895
H     3.33437  -2.27256  -0.66896
H     4.60388  -0.94842  -0.30935
H     3.93532   1.25058   0.30638
H     2.40872   1.77633  -0.45428
H     2.42046   1.30251   1.24867
H     1.00172  -1.82741  -0.53430
H     0.23188   1.03924   0.28869
H    -1.39755  -1.52309  -0.43071
H    -4.34771  -0.34950   0.86799
H    -3.70075  -1.45172  -0.38352
H    -4.36840   0.14773  -0.82513
H    -2.99630   1.78429   1.47209
H    -1.45317   2.12109   0.64504
H    -3.00355   2.28093  -0.22106
