24
Generated by autodE on: 2022-06-20. E = -705.266811 Ha
C     4.75498   0.75675   0.20728
O     3.70749  -0.20904   0.07731
C     2.44159   0.26753   0.08986
O     2.18094   1.46486   0.20416
C     1.47834  -0.78407  -0.04399
C     1.80366  -2.14222  -0.17339
N     2.08265  -3.27400  -0.28068
O     0.12778  -0.53966  -0.05462
C    -0.51393   0.56500   0.04621
C    -1.94367   0.54988   0.00530
C    -2.61695   1.78665   0.12512
C    -4.00782   1.82726   0.09337
C    -4.73646   0.64170  -0.05748
C    -4.07474  -0.59051  -0.17770
C    -2.68740  -0.64408  -0.14743
H     5.69274   0.18896   0.18314
H     4.67042   1.30146   1.15946
H     4.73069   1.47615  -0.62495
H     0.05592   1.48945   0.16172
H    -2.03457   2.70319   0.24252
H    -4.52827   2.78244   0.18632
H    -5.82804   0.67461  -0.08213
H    -4.65239  -1.50961  -0.29517
H    -2.16418  -1.59710  -0.23989
