24
Generated by autodE on: 2022-07-27. E = -705.268842 Ha
C     4.68749   1.44011  -0.35736
O     3.57145   0.75440  -0.93200
C     2.43223   0.74292  -0.20309
O     2.32761   1.28442   0.89173
C     1.38437   0.02341  -0.87371
C     1.47722  -0.60326  -2.11854
N     1.52219  -1.13824  -3.16031
O     0.21037  -0.01442  -0.17067
C    -0.89187  -0.58002  -0.48450
C    -2.00467  -0.48970   0.40654
C    -3.21250  -1.12509   0.04067
C    -4.31538  -1.05562   0.88686
C    -4.22424  -0.35708   2.09666
C    -3.02684   0.27645   2.46596
C    -1.91912   0.21513   1.63146
H     4.45375   2.50292  -0.19474
H     4.97742   0.98323   0.60072
H     5.50659   1.34398  -1.08018
H    -0.95765  -1.12483  -1.43405
H    -3.26848  -1.66650  -0.90627
H    -5.24965  -1.54610   0.60668
H    -5.09105  -0.30425   2.75925
H    -2.96660   0.81877   3.41169
H    -0.98119   0.70226   1.90388
