36
Generated by autodE on: 2022-06-17. E = -692.380872 Ha
C     4.25680  -0.16135   1.60174
C     4.18774   0.28226   0.16713
C     5.48608   0.78663  -0.39856
C     3.06627   0.24897  -0.59186
C     1.74721  -0.20702  -0.18179
C     0.67595  -0.20658  -0.99782
C    -0.71180  -0.69538  -0.68099
C    -0.97831  -1.97812  -1.49403
C    -0.96600  -0.97683   0.81626
N    -2.39595  -0.62097   1.01650
C    -2.72723   0.16482   2.04362
N    -3.07410   0.77733   2.97630
O    -2.93428  -0.12819  -0.21593
C    -1.80150   0.39687  -0.96610
C    -2.27273   0.49796  -2.40630
C    -1.40769   1.77063  -0.42432
H     4.60448   0.66871   2.24178
H     3.29940  -0.52116   2.00017
H     5.00159  -0.96859   1.71687
H     6.26919   0.00989  -0.33524
H     5.38894   1.09771  -1.44913
H     5.86043   1.64575   0.18665
H     3.14291   0.60170  -1.62745
H     1.63796  -0.56783   0.84479
H     0.80446   0.13504  -2.03243
H    -2.01467  -2.32439  -1.36414
H    -0.30122  -2.77369  -1.15007
H    -0.79446  -1.81765  -2.56574
H    -0.80781  -2.03185   1.06983
H    -0.34598  -0.35374   1.47182
H    -1.42051   0.74083  -3.05764
H    -3.01698   1.30252  -2.50242
H    -2.72702  -0.43906  -2.75233
H    -0.99633   1.72522   0.59400
H    -2.29081   2.42649  -0.41635
H    -0.64233   2.22509  -1.06909
