23
Generated by autodE on: 2022-06-17. E = -351.521384 Ha
C     3.54252   0.61851  -1.16887
C     2.55062   0.09164  -0.41762
C     2.84398  -0.87346   0.70253
C     1.16062   0.45543  -0.68540
C     0.07827  -0.00199  -0.00709
C    -1.28141   0.39228  -0.31481
C    -2.41284  -0.01716   0.31278
C    -3.75987   0.48377  -0.12587
C    -2.44294  -0.97846   1.46695
H     3.32606   1.31874  -1.98161
H     4.59100   0.36410  -0.99043
H     3.92316  -1.06014   0.79506
H     2.47525  -0.48691   1.66720
H     2.33821  -1.83932   0.53728
H     1.00073   1.16069  -1.50987
H     0.22946  -0.70560   0.81604
H    -1.39251   1.09818  -1.14687
H    -4.41254  -0.35713  -0.42223
H    -4.27840   0.99278   0.70649
H    -3.68859   1.18360  -0.97139
H    -3.05528  -1.86161   1.21223
H    -2.93048  -0.51098   2.34066
H    -1.45001  -1.32890   1.77653
