13
Generated by autodE on: 2022-06-17. E = -340.808996 Ha
C    -1.31052  -1.50747  -0.93517
C    -1.31568  -0.22146  -0.22104
C    -2.54774   0.52446   0.10012
O    -0.23070   0.31904   0.16149
N     0.99905  -0.37089  -0.12868
C     1.96204   0.38227   0.35834
N     2.91490   0.95845   0.74680
H    -2.32869  -1.82111  -1.19057
H    -0.81244  -2.26552  -0.30608
H    -0.68793  -1.41353  -1.84157
H    -3.20748  -0.12334   0.70246
H    -2.32910   1.45617   0.63570
H    -3.08864   0.73557  -0.83841
