13
Generated by autodE on: 2022-07-27. E = -340.809000 Ha
C     0.48504   0.20008  -2.55033
C     0.54205   0.53938  -1.11546
C     1.30133   1.68084  -0.58309
O    -0.11700  -0.22514  -0.34293
N    -0.09237   0.06726   1.06639
C    -0.83878  -0.85107   1.64193
N    -1.47720  -1.60929   2.28096
H     1.51296   0.03577  -2.91652
H    -0.13480  -0.68600  -2.73289
H     0.09072   1.06950  -3.10389
H     0.61305   2.34383  -0.03075
H     1.80839   2.22676  -1.38619
H     2.02750   1.31332   0.16236
