36
Generated by autodE on: 2022-06-17. E = -692.311313 Ha. Imaginary frequency = -395.8 cm-1
C     3.18268  -0.59751  -3.68195
C     3.63698   0.20955  -2.49791
C     4.92860   0.95227  -2.69860
C     2.96260   0.28999  -1.32416
C     1.71004  -0.35961  -0.98447
C     1.10764  -0.22128   0.22185
C    -0.15371  -0.84668   0.63044
C    -0.78620  -1.88437  -0.27274
C    -0.45463  -0.91617   1.99622
N    -2.27327   0.29706   2.24806
C    -3.22988  -0.45212   2.77802
N    -4.00514  -1.10259   3.37338
O    -2.52829   0.42586   0.87868
C    -1.50728   0.94760   0.21737
C    -1.71138   0.95011  -1.25514
C    -0.72930   2.06868   0.82710
H     3.95289  -1.33881  -3.96016
H     2.23929  -1.13331  -3.51419
H     3.05403   0.05423  -4.56454
H     5.22028   1.52693  -1.80701
H     5.74938   0.25512  -2.94687
H     4.85342   1.64977  -3.55254
H     3.39775   0.91476  -0.53427
H     1.24211  -0.99371  -1.74185
H     1.59469   0.40517   0.97678
H    -0.82147  -1.56929  -1.32382
H    -0.20813  -2.82382  -0.23760
H    -1.81319  -2.10692   0.05186
H    -1.02630  -1.75773   2.38915
H     0.14769  -0.36422   2.72050
H    -0.74669   0.78571  -1.76006
H    -2.07657   1.94315  -1.56987
H    -2.43306   0.18457  -1.56502
H    -0.38563   1.85956   1.84416
H    -1.40550   2.94311   0.86451
H     0.12228   2.32607   0.18636
