45
Generated by autodE on: 2022-05-31. E = -1241.769881 Ha
C    -3.20186   1.89659  -2.33967
N    -2.56587   1.49594  -1.09985
C    -1.66144   0.51901  -1.06324
O    -1.34394  -0.18413  -2.02968
C    -1.02200   0.21439   0.29527
F    -1.45179   1.15920   1.22479
C    -1.39552  -1.21978   0.81116
C    -2.43217  -1.93194  -0.07009
C    -2.05884  -3.22116  -0.73439
O    -3.54595  -1.44259  -0.16007
N    -0.15959  -1.95717   1.01092
C     0.84040  -1.33707   0.14855
C     2.26081  -1.79016   0.47070
C     2.44999  -2.98978   1.34770
O     3.21639  -1.23962  -0.06146
C     0.55216   0.19774   0.20703
C     1.14729   0.75305   1.53352
O     1.54135  -0.02166   2.41184
N     1.21945   2.08227   1.64072
C     1.69172   2.73181   2.84829
C     1.02545   1.09719  -0.94923
O     0.45396   2.18462  -1.13313
N     2.06394   0.69034  -1.67726
C     2.61588   1.53008  -2.72349
H    -3.58203   1.01428  -2.87396
H    -4.03962   2.56678  -2.11240
H    -2.49198   2.42176  -3.00024
H    -2.69930   2.05151  -0.26159
H    -1.90797  -1.07052   1.77148
H    -2.87187  -3.54163  -1.39854
H    -1.12173  -3.10887  -1.29927
H    -1.87940  -3.99117   0.03250
H     0.14067  -1.80003   1.97197
H     0.66709  -1.66207  -0.89211
H     2.03239  -2.81024   2.34905
H     1.90690  -3.84714   0.91958
H     3.52009  -3.22054   1.42428
H     0.80551   2.63836   0.89515
H     0.96139   2.63857   3.66917
H     2.63835   2.28141   3.17928
H     1.85528   3.79589   2.63849
H     2.61088  -0.09900  -1.31523
H     3.06272   2.45071  -2.31256
H     3.39063   0.96726  -3.25838
H     1.83090   1.82277  -3.43570
