18
Generated by autodE on: 2022-05-31. E = -439.451523 Ha
C    -3.70284  -0.58336   0.02001
C    -2.33100   0.03259  -0.05206
O    -2.16197   1.24592  -0.25205
C    -1.20237  -0.85638   0.12046
N     0.00539  -0.30709   0.05202
C     1.23343  -0.80155   0.16129
C     2.32779   0.13538   0.02539
C     3.72146  -0.42199   0.14366
O     2.11417   1.34053  -0.18081
H    -3.83864  -1.10341   0.98225
H    -4.47108   0.19231  -0.09531
H    -3.81892  -1.34011  -0.77347
H    -1.29501  -1.92702   0.30038
H    -0.01534   0.71506  -0.12184
H     1.36727  -1.86730   0.34458
H     3.89178  -1.18264  -0.63605
H     4.45998   0.38377   0.04133
H     3.85010  -0.92455   1.11621
