27
Generated by autodE on: 2022-05-31. E = -802.270408 Ha
C     4.32116  -1.20743   0.08704
N     3.21782  -0.27168   0.00875
C     1.93071  -0.64122   0.10101
O     1.53754  -1.80236   0.24531
C     0.94836   0.49468   0.02831
F     1.52197   1.70731   0.07593
C    -0.38696   0.36981  -0.01529
C    -1.28705   1.57993   0.01470
O    -1.01173   2.62318  -0.58385
N    -2.40604   1.41807   0.74180
C    -3.38502   2.47768   0.87574
C    -1.06212  -0.97990  -0.03036
O    -1.68599  -1.37241   0.96357
N    -1.04506  -1.62492  -1.20641
C    -1.53305  -2.98503  -1.33015
H     4.96894  -1.11408  -0.79751
H     4.93025  -1.02215   0.98580
H     3.92190  -2.22702   0.13215
H     3.42818   0.71696  -0.08660
H    -2.54051   0.52869   1.21912
H    -4.24367   2.09738   1.44191
H    -2.96672   3.34792   1.40720
H    -3.73147   2.82026  -0.11163
H    -0.39731  -1.28402  -1.91059
H    -2.48740  -3.08921  -0.79750
H    -0.81528  -3.70671  -0.90377
H    -1.68689  -3.22050  -2.39076
