45
Generated by autodE on: 2022-05-31. E = -1241.711241 Ha. Imaginary frequency = -416.7 cm-1
C    -4.06868   1.54232  -1.83783
N    -3.11946   1.22174  -0.78865
C    -1.90705   0.72883  -1.07793
O    -1.50923   0.53919  -2.23209
C    -1.04712   0.38101   0.11057
F    -1.70987   0.64930   1.29569
C    -1.26480  -1.68212   0.27130
C    -1.19885  -2.16843  -1.13218
C    -2.51984  -2.40067  -1.80508
O    -0.13233  -2.39196  -1.70005
N    -0.21008  -1.86981   1.12109
C     1.04491  -1.51807   0.80162
C     2.00787  -1.42799   1.92372
C     3.45184  -1.29146   1.55683
O     1.59858  -1.45336   3.08049
C     0.35291   0.65153   0.10970
C     1.11738   1.27979   1.23755
O     2.29188   1.64126   1.04841
N     0.54140   1.43460   2.44768
C     1.32362   1.87388   3.58641
C     0.97460   1.04476  -1.22654
O     1.03882   2.24264  -1.51681
N     1.47307   0.07963  -2.02156
C     1.88065   0.40534  -3.37578
H    -4.29931   0.65311  -2.44502
H    -4.99311   1.90905  -1.37652
H    -3.67178   2.32001  -2.50858
H    -3.38078   1.34935   0.18288
H    -2.24050  -1.78230   0.75083
H    -2.87066  -3.40871  -1.52054
H    -2.39958  -2.35991  -2.89490
H    -3.28491  -1.68728  -1.46803
H    -0.41353  -1.79789   2.12325
H     1.40701  -1.71316  -0.19855
H     3.57336  -0.50799   0.79517
H     4.05501  -1.06371   2.44475
H     3.79319  -2.24033   1.10808
H    -0.38980   1.07348   2.60421
H     0.67534   1.88924   4.47140
H     1.72663   2.88615   3.42798
H     2.17134   1.19745   3.78016
H     1.12835  -0.86643  -1.87177
H     2.31607  -0.48740  -3.84219
H     1.02358   0.74448  -3.98313
H     2.63337   1.20565  -3.36950
