24
Generated by autodE on: 2022-06-16. E = -402.049508 Ha
C    -1.68115  -1.33401  -1.14967
C    -1.21665  -0.55970   0.08006
N    -0.11954  -1.24905   0.80287
N     1.07907  -0.49842   0.57481
C     1.79164  -0.98810  -0.60000
N     0.69970   0.87988   0.41729
C     0.72740   1.53023   1.72346
C    -0.66293   0.88473  -0.18228
C    -0.65656   1.34959  -1.63522
H    -0.87954  -1.46250  -1.89043
H    -2.52383  -0.82549  -1.64316
H    -2.02353  -2.33559  -0.84682
H    -2.06895  -0.49057   0.77144
H    -0.30661  -1.16484   1.80153
H     1.22079  -0.92463  -1.54310
H     2.71734  -0.40764  -0.71974
H     2.06102  -2.04046  -0.43166
H     0.44295   2.58686   1.61187
H     1.74664   1.49197   2.13347
H     0.03880   1.06885   2.46113
H    -1.27607   1.59653   0.38895
H    -0.24308   2.36805  -1.69739
H    -1.67831   1.37765  -2.04457
H    -0.04848   0.69935  -2.27936
