12
Generated by autodE on: 2022-06-16. E = -157.299005 Ha
C     1.61501  -0.46342   0.00357
C     0.63034   0.65706   0.15599
C    -0.70774   0.58975   0.06937
C    -1.54759  -0.62301  -0.19982
H     1.13669  -1.43270  -0.19724
H     2.32074  -0.25527  -0.82007
H     2.23099  -0.57023   0.91402
H     1.07179   1.64071   0.36099
H    -1.26802   1.52292   0.20973
H    -2.26240  -0.79526   0.62415
H    -2.15809  -0.48292  -1.10947
H    -0.95273  -1.53846  -0.32900
