12
Generated by autodE on: 2022-07-27. E = -244.713113 Ha
C     0.61644   1.22629   1.26186
N    -0.50304   0.50597   0.69287
N    -0.23900  -0.29335  -0.28089
C     1.13680  -0.47361  -0.80018
N    -1.12910  -1.00214  -0.88900
H     1.38835   0.56752   1.69960
H     1.12302   1.89490   0.54228
H     0.22464   1.85477   2.07252
H     1.78164  -0.84315   0.00671
H     1.09060  -1.19469  -1.61918
H     1.51848   0.49191  -1.15414
H    -2.01642  -0.76874  -0.42028
