24
Generated by autodE on: 2022-06-16. E = -401.979861 Ha. Imaginary frequency = -493.9 cm-1
C    -1.56243  -1.39194  -1.35789
C    -1.57540  -0.52045  -0.12714
N    -0.09656  -1.39025   1.03948
N     0.88751  -0.54430   0.79625
C     1.80943  -0.95411  -0.26815
N     0.59657   0.73022   1.02901
C     1.59916   1.69162   0.61511
C    -1.18089   0.83364  -0.15654
C    -0.74986   1.52017  -1.42718
H    -0.63433  -1.28159  -1.93724
H    -2.39842  -1.13932  -2.03737
H    -1.66328  -2.45530  -1.09289
H    -2.35432  -0.77454   0.59926
H    -0.58156  -1.00340   1.85381
H     1.47467  -0.58095  -1.24701
H     1.83458  -2.04831  -0.27986
H     2.81773  -0.57152  -0.06382
H     2.51830   1.58579   1.21845
H     1.88782   1.64302  -0.44942
H     1.19574   2.69536   0.80832
H    -1.65611   1.49001   0.57719
H    -0.27634   2.49342  -1.23023
H    -1.62199   1.71726  -2.07930
H    -0.04349   0.91769  -2.01625
