40
Generated by autodE on: 2022-06-19. E = -1023.753210 Ha
C     3.86917  -1.04127   1.38622
N     2.85759  -0.41791   0.55941
C     2.13154  -1.11874  -0.32231
O     2.35549  -2.30488  -0.59281
C     1.00099  -0.36892  -1.03167
C    -0.44541  -0.84380  -0.64392
N    -0.61938  -2.16899  -0.12055
C    -0.63098  -3.26900  -1.07006
C    -0.28100  -2.37985   1.20852
C    -0.14506  -1.38664   2.10779
C    -0.32165   0.06177   1.75570
C    -0.92893   0.25342   0.33900
C    -2.44602   0.37930   0.46693
N    -3.12551  -0.77186   0.49923
O    -2.96698   1.49428   0.57568
C    -0.32875   1.51207  -0.36114
C    -1.14627   1.89481  -1.54984
N    -1.67612   2.15241  -2.54858
C    -0.25476   2.68390   0.53596
N    -0.15177   3.60389   1.23243
N     1.00161   1.06838  -0.75099
C     1.74945   1.91841  -1.66365
H     3.41433  -1.71319   2.13429
H     4.55975  -1.63578   0.77023
H     4.43835  -0.26287   1.90933
H     2.56165   0.53699   0.74052
H     1.14763  -0.56862  -2.10597
H    -1.04800  -0.76948  -1.55993
H    -0.92787  -4.19206  -0.55312
H     0.35429  -3.42683  -1.53884
H    -1.36969  -3.06587  -1.86086
H    -0.17591  -3.42825   1.49610
H     0.08353  -1.63828   3.14452
H     0.64047   0.59425   1.81788
H    -0.97500   0.56185   2.48896
H    -4.13428  -0.75146   0.61756
H    -2.64329  -1.65753   0.35456
H     1.32760   1.91817  -2.68657
H     1.76295   2.95151  -1.28569
H     2.78720   1.56182  -1.71466
