20
Generated by autodE on: 2022-07-27. E = -565.996578 Ha
C     2.55694  -3.23022  -0.26304
N     1.58578  -2.19194   0.03248
C     0.88795  -1.59426  -0.94820
O     1.00146  -1.89161  -2.14244
C    -0.13284  -0.57237  -0.58453
N     0.00731   0.46245   0.20385
C     1.28898   0.77181   0.87382
C    -1.03658   1.35876   0.46573
C    -2.31468   1.11852  -0.06694
N    -3.37710   0.91350  -0.51133
C    -0.82757   2.49178   1.26984
N    -0.69563   3.44311   1.93853
H     3.31325  -2.86446  -0.97357
H     3.05403  -3.52311   0.66926
H     2.07270  -4.11612  -0.70486
H     1.38339  -1.97072   1.00258
H    -1.08383  -0.67560  -1.11161
H     1.49026   1.84271   0.76226
H     1.20418   0.52272   1.93963
H     2.09659   0.20422   0.40944
