28
Generated by autodE on: 2022-06-03. E = -596.319123 Ha
N    -0.42178   2.59759   2.19134
C    -0.70998   1.85133   1.34101
C    -1.11850   0.96980   0.31486
C    -0.36865   0.05378  -0.37199
C     1.06327  -0.23061  -0.29183
C     1.55067  -1.49390  -0.68759
C     2.91065  -1.79376  -0.60097
C     3.81452  -0.83521  -0.13321
C     3.34742   0.42808   0.24826
C     1.98866   0.72870   0.17221
C    -1.36498  -0.77520  -1.16975
C    -2.12301  -1.65511  -0.12062
C    -2.97220  -0.61406   0.66204
C    -2.58850   0.73073  -0.02957
C    -2.44066   0.28001  -1.49417
H     0.85686  -2.25275  -1.05170
H     3.26640  -2.78144  -0.90319
H     4.88003  -1.06829  -0.07134
H     4.04889   1.18677   0.60289
H     1.64653   1.72419   0.45642
H    -0.93964  -1.33439  -2.01027
H    -2.75967  -2.38290  -0.64444
H    -1.42591  -2.21423   0.51882
H    -4.04965  -0.80233   0.54411
H    -2.74751  -0.59371   1.73763
H    -3.25876   1.57075   0.18762
H    -3.36130  -0.15947  -1.90659
H    -2.07658   1.07816  -2.15730
