51
Generated by autodE on: 2022-06-03. E = -1321.512375 Ha. Imaginary frequency = -413.1 cm-1
C    -1.87458   1.42390   3.37493
C    -0.64196   0.63901   3.02307
O    -0.27331  -0.35115   3.65800
C     0.08454   1.07699   1.84877
O     1.27404   0.47580   1.51538
C     1.54475   0.87296   0.26018
C     2.88203   0.63002  -0.28632
C     3.65226  -0.43324   0.21455
C     4.90786  -0.69106  -0.33268
C     5.39486   0.10055  -1.37937
C     4.62584   1.15740  -1.87679
C     3.36867   1.42610  -1.33521
O     0.95863   2.08727   0.05346
C    -0.04812   2.24614   1.03520
O    -0.79474   3.19622   1.02008
C     0.22958  -0.33882  -0.76818
C     0.40065   0.21142  -2.07965
N     0.61893   0.60646  -3.15209
C     0.65612  -1.82081  -0.62425
C    -0.38446  -2.64626  -1.43219
C    -1.67563  -2.50611  -0.57601
C    -1.21146  -1.59458   0.61442
C     0.21670  -2.12898   0.81289
C    -1.02261  -0.23692  -0.04460
C    -2.15939   0.63252  -0.33332
C    -2.07853   1.73768  -1.21062
C    -3.19416   2.53131  -1.46767
C    -4.41871   2.24935  -0.85603
C    -4.51811   1.16545   0.02363
C    -3.40611   0.36999   0.28448
H    -2.56677   1.45248   2.51800
H    -2.36623   0.95900   4.23899
H    -1.61132   2.46824   3.60518
H     3.26749  -1.04779   1.02921
H     5.50972  -1.51376   0.05872
H     6.37841  -0.10653  -1.80705
H     5.00705   1.77777  -2.69052
H     2.76554   2.24907  -1.71854
H     1.70189  -2.00500  -0.89480
H    -0.05455  -3.69278  -1.49734
H    -0.50658  -2.26868  -2.45736
H    -1.99740  -3.47369  -0.16477
H    -2.51962  -2.07502  -1.12994
H    -1.87276  -1.61241   1.48566
H     0.21312  -3.20967   1.01390
H     0.78711  -1.62581   1.59423
H    -1.13642   1.99068  -1.69139
H    -3.10348   3.37946  -2.14958
H    -5.29222   2.87229  -1.06120
H    -5.46917   0.93877   0.51025
H    -3.50574  -0.46789   0.97305
