46
Generated by autodE on: 2022-10-22. E = -2009.144492 Ha
C    -1.56812   4.29136   1.47486
O    -1.13348   2.94043   1.39588
C    -0.56417   2.48202   0.17723
O    -1.46499   2.65885  -0.88114
C    -2.73692   2.02734  -0.74818
C     0.72083   3.27517  -0.13323
C     1.26220   3.25359  -1.56066
C     1.67297   1.89118  -2.11654
C     0.48176   1.00366  -2.52805
C     0.29472  -0.24991  -1.68916
Cl    1.75937  -1.30497  -1.97536
Cl   -1.17221  -1.12807  -2.35676
C     0.07564  -0.09644  -0.20282
C    -0.28311   1.00684   0.49753
C    -0.39068   0.55497   1.96695
C     0.52586   1.31112   2.83879
N     1.28848   1.85765   3.51808
C    -1.77831   0.65682   2.46168
N    -2.87081   0.64098   2.84691
N    -0.02694  -0.86644   2.00512
C     0.20040  -1.22627   0.78740
C     0.57584  -2.63770   0.51982
C    -0.29006  -3.51163  -0.15208
C     0.07956  -4.84410  -0.34762
C     1.31272  -5.30917   0.11832
C     2.17210  -4.44117   0.80004
C     1.80262  -3.11222   1.00938
H    -1.99573   4.63288   0.52064
H    -0.74724   4.96389   1.77113
H    -2.34920   4.32175   2.24738
H    -3.28857   2.40918   0.12430
H    -2.63760   0.93360  -0.66146
H    -3.29531   2.26273  -1.66333
H     0.50465   4.32180   0.12290
H     1.49258   2.93405   0.57367
H     2.14445   3.91377  -1.56725
H     0.52720   3.71803  -2.23752
H     2.31538   1.36929  -1.38904
H     2.30071   2.05246  -3.00508
H    -0.45496   1.57044  -2.48214
H     0.59581   0.65577  -3.56297
H    -1.25241  -3.15245  -0.51448
H    -0.60205  -5.52197  -0.86639
H     1.60193  -6.35011  -0.04386
H     3.13393  -4.80103   1.17234
H     2.47242  -2.42969   1.53581
