28
Generated by autodE on: 2022-10-22. E = -1460.554776 Ha
C    -1.52845   3.22500  -1.46252
O    -2.14572   1.99896  -1.09093
C    -1.34514   0.85695  -1.25026
O    -0.89912   0.71198  -2.58356
C    -1.91225   0.49862  -3.56186
C    -0.11637   0.86947  -0.42289
C     0.71509   0.39688   0.32098
C     1.33628  -0.60634   1.15291
Cl    0.91858  -0.27260   2.90250
Cl    3.15053  -0.58122   1.00118
C     0.80147  -1.98835   0.73837
C    -0.73188  -2.10939   0.63729
C    -1.42689  -1.69188  -0.68915
C    -2.17029  -0.34230  -0.73246
H    -0.58054   3.37357  -0.91476
H    -2.22744   4.02834  -1.19443
H    -1.32232   3.26739  -2.54384
H    -2.76012   1.18768  -3.42390
H    -1.44889   0.69581  -4.53839
H    -2.28174  -0.53997  -3.54756
H     1.25999  -2.22105  -0.23548
H     1.19468  -2.71216   1.46752
H    -0.94442  -3.17777   0.79250
H    -1.19840  -1.59089   1.49101
H    -0.70762  -1.73987  -1.52371
H    -2.17911  -2.46420  -0.90802
H    -3.05827  -0.41837  -1.37723
H    -2.53371  -0.06715   0.26883
