46
Generated by autodE on: 2022-10-22. E = -2009.028782 Ha. Imaginary frequency = -283.1 cm-1
C    -1.42602   4.35995   1.68521
O    -1.03103   3.01950   1.43085
C    -0.83043   2.63941   0.08850
O    -2.00385   2.83040  -0.67212
C    -3.15251   2.11208  -0.23550
C     0.28481   3.46496  -0.57792
C     0.52633   3.27024  -2.08008
C     1.22722   1.99284  -2.58366
C     0.32806   0.78887  -2.92821
C     0.29273  -0.32411  -1.87499
Cl    1.93447  -1.12766  -1.79364
Cl   -0.92174  -1.57579  -2.42765
C    -0.08831   0.19339  -0.56562
C    -0.44602   1.19799   0.05761
C    -0.39768   0.43906   2.44206
C     0.72335   1.26248   2.74974
N     1.66429   1.90627   2.98959
C    -1.69046   0.74726   2.95116
N    -2.75939   0.97314   3.35550
N    -0.15120  -0.81324   2.03133
C     0.14011  -1.54942   1.13562
C     0.65666  -2.83161   0.76903
C    -0.11259  -3.73214   0.01070
C     0.43557  -4.96274  -0.34363
C     1.74718  -5.28224   0.02349
C     2.51339  -4.37842   0.77014
C     1.97424  -3.15489   1.15506
H    -2.15212   4.71827   0.93951
H    -0.56154   5.04372   1.70987
H    -1.90524   4.35936   2.67450
H    -3.43065   2.37407   0.79695
H    -2.98790   1.02291  -0.29647
H    -3.97143   2.38869  -0.91286
H     0.01742   4.52124  -0.42422
H     1.20631   3.27781  -0.00476
H     1.15818   4.11985  -2.38434
H    -0.42630   3.40179  -2.61781
H     2.01834   1.68772  -1.87972
H     1.75086   2.26325  -3.51274
H    -0.71325   1.11986  -3.06124
H     0.64440   0.32271  -3.87241
H    -1.12563  -3.46368  -0.28460
H    -0.16103  -5.67270  -0.91985
H     2.17595  -6.24218  -0.27247
H     3.53562  -4.63222   1.05802
H     2.55911  -2.43993   1.73562
