44
Generated by autodE on: 2022-05-30. E = -1053.962086 Ha
C     4.20910   1.08732   0.76203
O     3.22602   0.40818  -0.02806
C     2.52787  -0.55775   0.57813
O     2.77269  -0.93524   1.70734
C     1.52746  -1.23475  -0.35663
N     1.31692  -0.57049  -1.63252
C     0.04202   0.18899  -1.66568
C     0.30575   1.68444  -1.89094
C    -0.81367  -0.30554  -2.85126
C    -0.64016  -0.15877  -0.27329
C    -0.33679   0.88261   0.81373
O     0.74838   1.38188   1.01971
O    -1.39775   1.12699   1.58431
C    -1.20711   2.01006   2.70132
C    -2.16667  -0.24499  -0.36224
O    -2.86236  -1.16064   0.02162
O    -2.67295   0.86896  -0.89587
C    -4.10083   0.95273  -0.99590
C     0.08721  -1.49337   0.18259
C    -0.04080  -1.75500   1.68735
C    -0.41587  -2.75669  -0.54840
H     4.67793   1.82275   0.09806
H     4.96149   0.37998   1.13938
H     3.72627   1.59502   1.60981
H     1.99718  -2.22493  -0.50393
H     2.09732   0.04299  -1.84606
H     0.68643   1.82839  -2.91433
H    -0.62233   2.26499  -1.79202
H     1.04831   2.08132  -1.19029
H    -1.20970  -1.31749  -2.69756
H    -0.17525  -0.32733  -3.74619
H    -1.65942   0.36465  -3.05086
H    -0.46009   1.59229   3.39110
H    -2.18298   2.08432   3.19382
H    -0.87648   2.99857   2.35342
H    -4.49086   0.13653  -1.62063
H    -4.55584   0.90005   0.00380
H    -4.31390   1.92209  -1.46052
H    -1.09873  -1.92387   1.93486
H     0.52380  -2.65762   1.96026
H     0.33652  -0.93611   2.31119
H    -1.48170  -2.93108  -0.37166
H     0.14369  -3.61890  -0.15584
H    -0.23586  -2.71134  -1.62841
