24
Generated by autodE on: 2022-05-30. E = -613.270329 Ha
C    -1.78097   2.85995   0.47935
O    -0.84507   1.81219   0.19990
C    -1.28240   0.54852   0.34915
O    -2.42755   0.28892   0.67238
C    -0.20422  -0.42575   0.06076
C     1.18699   0.12876   0.12879
O     1.68065   0.61625   1.12631
O     1.83571   0.03105  -1.03643
C     3.19758   0.48529  -1.05535
C    -0.42915  -1.74078  -0.20455
C    -1.79593  -2.35670  -0.27717
C     0.69457  -2.70871  -0.43310
H    -2.13916   2.79128   1.51690
H    -2.63937   2.80441  -0.20599
H    -1.23700   3.79958   0.32805
H     3.80404  -0.09187  -0.34225
H     3.25033   1.55317  -0.79916
H     3.55632   0.32175  -2.07803
H    -2.09961  -2.70002   0.72741
H    -2.56420  -1.65926  -0.62871
H    -1.77125  -3.24367  -0.92738
H     1.68405  -2.32808  -0.15317
H     0.71907  -2.99716  -1.49829
H     0.49546  -3.63312   0.13317
