20
Generated by autodE on: 2022-05-30. E = -440.660169 Ha
C     3.61245  -0.70456  -0.06203
O     2.24828  -1.08135   0.08825
C     1.32200  -0.07709  -0.05652
O     1.67545   1.09099  -0.30437
C    -0.00307  -0.52501   0.10447
N    -0.98886   0.42973  -0.02884
C    -2.28913   0.32402   0.06182
C    -2.88530  -1.00738   0.35565
C    -3.14271   1.52971  -0.12912
H     3.81047  -0.29361  -1.06485
H     4.20220  -1.61958   0.08100
H     3.91048   0.04450   0.68894
H    -0.27163  -1.55420   0.31820
H    -0.60751   1.36067  -0.23016
H    -2.50826  -1.40289   1.31631
H    -2.60365  -1.74302  -0.41962
H    -3.97984  -0.94631   0.40377
H    -2.54425   2.42624  -0.34806
H    -3.74860   1.71957   0.77408
H    -3.85556   1.36900  -0.95655
