44
Generated by autodE on: 2022-05-30. E = -1053.932346 Ha. Imaginary frequency = -238.8 cm-1
C     4.50559  -0.24728   1.09736
O     3.31672  -0.03170   0.33299
C     2.76152  -1.11573  -0.25865
O     3.26960  -2.23146  -0.19293
C     1.48933  -0.83224  -0.88251
N     1.17081   0.49644  -1.12941
C     0.17001   0.95430  -1.83647
C    -0.13895   2.40928  -1.79109
C    -0.55786   0.08085  -2.79955
C    -0.97556  -0.32382   0.57102
C    -0.73711   0.97220   1.22122
O     0.36246   1.49283   1.40251
O    -1.85566   1.58414   1.67013
C    -1.69965   2.90525   2.19181
C    -2.19826  -0.53002  -0.20283
O    -2.66877  -1.61005  -0.55133
O    -2.81009   0.62066  -0.58959
C    -4.01748   0.48448  -1.33590
C     0.01324  -1.34940   0.70159
C     0.89272  -1.35266   1.93887
C    -0.24372  -2.75940   0.21613
H     4.81910   0.74028   1.45637
H     5.29681  -0.69050   0.47538
H     4.30209  -0.90884   1.95275
H     1.16661  -1.55045  -1.63099
H     1.60521   1.15713  -0.48030
H    -0.04229   2.84608  -2.79938
H    -1.18868   2.54169  -1.48333
H     0.51298   2.95041  -1.09267
H    -0.75098  -0.92671  -2.41219
H     0.05619  -0.02628  -3.71266
H    -1.50967   0.54422  -3.08590
H    -1.05594   2.90541   3.08402
H    -2.70743   3.24707   2.45819
H    -1.26452   3.57574   1.43512
H    -3.84019  -0.04494  -2.28403
H    -4.78059  -0.06130  -0.76042
H    -4.36414   1.50534  -1.53940
H     0.26675  -1.66489   2.79377
H     1.69869  -2.09121   1.84641
H     1.32508  -0.37735   2.17321
H    -0.93147  -3.26902   0.91330
H     0.70322  -3.31800   0.21136
H    -0.69156  -2.80440  -0.78019
