26
Generated by autodE on: 2022-06-27. E = -689.460876 Ha
C     2.69149  -1.77531   0.40252
O     2.12500  -0.88136  -0.56152
C     0.88019  -0.40126  -0.26918
C     0.64909   0.88646   0.11300
O     1.51847   1.87634   0.31467
C     2.93378   1.70253   0.18901
C    -0.76303   1.35354   0.34937
O    -0.95104   2.51241   0.69310
C    -1.88904   0.40115   0.17361
C    -3.27425   0.90788   0.43223
C    -1.64672  -0.87858  -0.20400
C    -2.74883  -1.87293  -0.38946
C    -0.24882  -1.33556  -0.46764
O    -0.02533  -2.48019  -0.85799
H     3.67617  -2.06993   0.01599
H     2.81716  -1.26930   1.37424
H     2.06774  -2.67187   0.53374
H     3.36642   2.68330   0.42386
H     3.20655   1.41012  -0.83316
H     3.30468   0.95697   0.90658
H    -3.75467   0.33276   1.24104
H    -3.90780   0.78369  -0.46130
H    -3.26348   1.96766   0.71272
H    -3.32246  -1.99617   0.54405
H    -2.35485  -2.84897  -0.69558
H    -3.46411  -1.52323  -1.15243
