55
Generated by autodE on: 2022-06-27. E = -1452.320480 Ha. Imaginary frequency = -290.7 cm-1
C    -4.33159   1.55056   0.46056
O    -4.06673   0.28753  -0.16302
C    -2.79343  -0.13659  -0.35619
C    -2.41855  -1.39314   0.03057
O    -3.10145  -2.23376   0.81301
C    -3.99071  -1.71592   1.81095
C    -1.24263  -2.02969  -0.63001
O    -1.21868  -3.25275  -0.74536
C    -0.15037  -1.15917  -1.11026
C     0.78202  -1.85545  -2.06756
C     0.90534  -1.20647   0.85150
C     0.33842  -2.30418   1.60525
N    -0.17054  -3.15988   2.20331
C     2.31535  -1.44290   0.42094
C     3.05865  -0.52881  -0.34836
C     4.36926  -0.80546  -0.72883
C     4.97213  -2.01366  -0.36590
C     4.24232  -2.94387   0.37606
C     2.93114  -2.66335   0.76268
N     0.38819  -0.01158   1.32156
C     0.25760   1.15175   0.59408
C     1.47397   2.02532   0.34036
C     2.52825   2.01736   1.41833
O     1.51183   2.81844  -0.58135
C    -0.88058   1.97883   1.18390
C    -1.10772   3.37659   0.70143
O    -1.56739   1.47089   2.05978
C    -0.42969   0.25953  -1.28782
C     0.27707   0.96622  -2.41845
C    -1.86743   0.68266  -1.16467
O    -2.28328   1.69311  -1.73172
H    -3.84563   2.37367  -0.07769
H    -3.99799   1.53930   1.50808
H    -5.42084   1.67990   0.42213
H    -4.96200  -1.44547   1.37781
H    -4.11831  -2.52415   2.54260
H    -3.54377  -0.83830   2.30228
H     1.69462  -1.28559  -2.26042
H     1.06070  -2.84558  -1.68712
H     0.26690  -1.99748  -3.03352
H     2.61556   0.39583  -0.70100
H     4.91655  -0.07226  -1.32469
H     5.99959  -2.22965  -0.66650
H     4.69239  -3.89655   0.66295
H     2.38768  -3.40627   1.34687
H    -0.44041  -0.12701   1.91920
H     2.71087   1.02725   1.84936
H     3.45604   2.45640   1.02933
H     2.14415   2.66051   2.23082
H    -2.08990   3.72044   1.04668
H    -1.03038   3.44837  -0.38991
H    -0.32877   4.02817   1.13185
H    -0.06519   0.52970  -3.37282
H     1.36417   0.84779  -2.37317
H     0.03979   2.03267  -2.43110
