37
Generated by autodE on: 2022-05-29. E = -934.068340 Ha
C     4.28965   1.53765  -0.81150
O     2.86065   1.47685  -0.67281
C     2.37431   0.36082  -0.14106
O     3.03102  -0.59515   0.23015
N     0.99744   0.38100  -0.03485
N     0.23562   1.42661  -0.42983
C    -1.00882   1.14661  -0.24508
C    -2.05829   2.12215  -0.63208
C    -1.61622   3.45838  -1.15882
O    -3.23941   1.81701  -0.52039
C    -1.27828  -0.21723   0.36856
C    -2.03220  -0.08457   1.69179
C    -1.89539  -1.20930  -0.66547
C    -2.09868  -2.58755  -0.00748
C    -0.64163  -3.10393   0.18399
C     0.21949  -1.99742  -0.46286
C    -0.70036  -1.49734  -1.59075
C     0.21692  -0.76521   0.48447
C     0.65011  -1.06692   1.85012
N     0.96840  -1.31431   2.93769
H     4.50216   2.51332  -1.26289
H     4.77418   1.45933   0.17206
H     4.64630   0.72961  -1.46581
H    -2.49796   4.05817  -1.41712
H    -1.01335   3.98252  -0.40093
H    -0.97592   3.32738  -2.04439
H    -2.02575  -1.02836   2.25233
H    -1.57229   0.68795   2.32552
H    -3.07443   0.20049   1.49808
H    -2.79415  -0.79267  -1.13579
H    -2.65887  -3.23592  -0.69647
H    -2.66615  -2.54159   0.93054
H    -0.38202  -3.27422   1.23856
H    -0.47575  -4.05079  -0.34819
H     1.23555  -2.30337  -0.73505
H    -0.31663  -0.61797  -2.12618
H    -0.91296  -2.28782  -2.32437
