21
Generated by autodE on: 2022-05-29. E = -404.490442 Ha
C     1.81415  -1.63190  -0.09748
C     0.69721  -0.68836  -0.34779
C     0.46943   0.53958   0.19097
C     1.27070   1.19530   1.15469
N     1.92362   1.75669   1.94289
C    -0.91480   1.00549  -0.26375
C    -1.93655   0.09660   0.48610
C    -1.66413  -1.30531  -0.13095
C    -0.53073  -1.01985  -1.17420
C    -0.94501   0.38002  -1.67284
H     2.30006  -1.91541  -1.04649
H     1.42460  -2.56638   0.34300
H     2.57107  -1.21234   0.58072
H    -1.10098   2.08259  -0.17741
H    -2.96374   0.43278   0.28056
H    -1.78220   0.12607   1.57392
H    -1.35175  -2.05205   0.61300
H    -2.55139  -1.69756  -0.64925
H    -0.38930  -1.81261  -1.91937
H    -1.94538   0.39677  -2.13151
H    -0.21138   0.82792  -2.35906
