16
Generated by autodE on: 2022-05-29. E = -529.485693 Ha
C     4.03764  -0.70690   0.29063
O     2.72306  -1.24654   0.47572
C     1.70561  -0.43564   0.17626
O     1.82296   0.70530  -0.23267
N     0.50874  -1.11405   0.40885
N    -0.51273  -0.42238   0.15681
C    -1.50578   0.15294  -0.05199
C    -2.74261   0.87636  -0.34286
C    -4.00170   0.10068  -0.11998
O    -2.67342   2.02556  -0.73764
H     4.73323  -1.50205   0.58314
H     4.18559   0.17851   0.92612
H     4.19793  -0.43215  -0.76229
H    -4.04995  -0.23581   0.92865
H    -3.99692  -0.80114  -0.75413
H    -4.86726   0.73192  -0.35985
