37
Generated by autodE on: 2022-05-29. E = -933.968047 Ha. Imaginary frequency = -308.4 cm-1
C     4.57736   0.68494   0.32506
O     3.37152   0.23160  -0.30274
C     2.38925   1.12785  -0.40828
O     2.47328   2.29732  -0.08511
N     1.26124   0.48061  -0.91395
N     0.21179   1.17803  -0.99692
C    -0.97295   1.17292  -0.76718
C    -2.18500   1.91758  -1.17970
C    -1.95315   3.36996  -1.48016
O    -3.26512   1.36388  -1.23764
C    -1.28084  -0.53846   0.67684
C    -1.86914   0.30722   1.76867
C    -2.10623  -1.51957  -0.16166
C    -2.26112  -2.79762   0.72366
C    -0.82286  -3.38840   0.74713
C    -0.01449  -2.36918  -0.11899
C    -1.06497  -2.00499  -1.18595
C    -0.00026  -1.09105   0.70359
C     0.98566  -0.78774   1.67427
N     1.80440  -0.54328   2.46920
H     5.02009   1.51700  -0.24126
H     5.25666  -0.17527   0.32711
H     4.37194   1.00713   1.35609
H    -2.90794   3.84483  -1.74008
H    -1.50389   3.86118  -0.60229
H    -1.23580   3.46379  -2.31123
H    -2.21719  -0.34597   2.58762
H    -1.12443   1.00040   2.18580
H    -2.73595   0.88305   1.41686
H    -3.04546  -1.11030  -0.54689
H    -2.97182  -3.48855   0.24736
H    -2.64567  -2.55902   1.72522
H    -0.40721  -3.47626   1.76095
H    -0.78596  -4.38304   0.27867
H     0.96628  -2.72013  -0.45881
H    -0.72923  -1.22571  -1.88378
H    -1.40374  -2.88275  -1.75515
