19
Generated by autodE on: 2022-06-05. E = -514.712120 Ha
C    -4.18339  -0.14805   0.08837
O    -2.95237  -0.76774  -0.29980
C    -1.82390  -0.10406   0.00831
O    -1.81240   0.97665   0.59032
C    -0.64002  -0.81421  -0.42585
N     0.52727  -0.24639  -0.16356
C     1.78376  -0.61178  -0.41592
C     2.81373   0.28906   0.04188
C     4.24589  -0.11553  -0.18861
O     2.52274   1.34655   0.62809
H    -4.22640  -0.01700   1.17989
H    -4.98084  -0.82463  -0.24083
H    -4.29609   0.83236  -0.39802
H    -0.67855  -1.77065  -0.94438
H     0.47137   0.66121   0.33293
H     1.97425  -1.54880  -0.93716
H     4.88363   0.77829  -0.23381
H     4.36284  -0.71572  -1.10250
H     4.58264  -0.73301   0.66255
