19
Generated by autodE on: 2022-07-27. E = -514.694988 Ha
C    -1.85700  -1.60327   0.96139
O    -0.64519  -1.31711   0.25480
C    -0.77626  -0.80295  -0.97459
O    -1.84287  -0.73134  -1.56370
C     0.50469  -0.48236  -1.60749
N     1.59879  -0.06422  -0.99219
C     1.80334   0.51697   0.21729
C     0.79026   1.25432   0.90187
C     1.21963   2.00548   2.14285
O    -0.38642   1.35248   0.49766
H    -2.47109  -0.69581   1.05127
H    -2.43332  -2.38695   0.44793
H    -1.55262  -1.95132   1.95550
H     0.59695  -0.69429  -2.67293
H     2.44642  -0.14008  -1.56315
H     2.85009   0.62549   0.49387
H     0.95403   3.06945   2.03609
H     0.65173   1.61567   3.00407
H     2.29350   1.91393   2.35422
