54
Generated by autodE on: 2022-06-05. E = -1384.262648 Ha. Imaginary frequency = -219.3 cm-1
C     3.78938  -5.59488   3.52881
O     5.05320  -5.36318   2.89040
C     5.03966  -4.55993   1.82060
O     4.02009  -4.16461   1.29076
C     6.40877  -4.40412   1.25236
N     7.49690  -4.11493   1.96710
C     7.68433  -3.20399   2.94837
C     6.65995  -2.66230   3.81109
C     7.16099  -1.96280   5.05415
O     5.44166  -2.79270   3.61658
C     6.90968  -1.46225   0.96363
C     6.31304  -2.28298   0.25425
C     5.98038  -2.51983  -1.17369
F     5.39155  -1.33230  -1.68133
C     4.94782  -3.63662  -1.44450
C     3.52172  -3.21220  -1.61943
O     5.31740  -4.79080  -1.54898
C     7.27624  -2.74240  -1.96925
C     8.36445  -1.67966  -1.73643
C     9.25533  -1.89895  -0.48594
C     9.25422  -0.83421   0.62593
C     7.85962  -0.35191   1.11733
C     7.86829   0.25044   2.54748
C     9.15361   0.81053   3.07328
O     6.82708   0.30413   3.17391
C     7.37966   0.90127   0.28200
C     5.90911   1.18257   0.24388
O     8.20107   1.61639  -0.25432
H     3.35378  -4.64281   3.86338
H     3.99983  -6.23862   4.39076
H     3.09396  -6.09676   2.84072
H     6.58903  -5.01180   0.36496
H     8.36572  -4.37238   1.49681
H     8.72859  -3.04947   3.21510
H     8.15914  -1.52279   4.92510
H     7.22791  -2.71843   5.85696
H     6.44550  -1.19137   5.36648
H     3.23030  -2.49319  -0.84140
H     3.42199  -2.70025  -2.59073
H     2.86931  -4.09411  -1.59977
H     7.65555  -3.74504  -1.72459
H     6.98380  -2.76058  -3.03144
H     7.89435  -0.68470  -1.72850
H     9.00626  -1.68276  -2.63026
H     9.00374  -2.87261  -0.04203
H    10.30417  -1.99414  -0.80917
H     9.80553   0.05817   0.30066
H     9.80011  -1.25615   1.48035
H     8.95848   1.38794   3.98562
H     9.84633  -0.01439   3.30380
H     9.64253   1.43841   2.31351
H     5.44280   0.97085   1.21557
H     5.74024   2.22403  -0.05935
H     5.44852   0.50636  -0.49090
