75
Generated by autodE on: 2022-07-03. E = -1860.541536 Ha
C    31.82166 -16.15845 -73.42343
O    30.50947 -16.48033 -73.91591
C    30.32109 -17.71365 -74.37449
O    31.17747 -18.57911 -74.35458
C    28.92751 -17.91550 -74.93599
C    28.31488 -19.21232 -74.33145
C    26.78674 -19.24033 -74.26485
C    26.04262 -18.83265 -75.54235
C    26.01981 -17.30498 -75.75918
C    26.82026 -16.66524 -76.96767
C    25.85071 -16.58147 -78.17021
C    25.63137 -15.39341 -78.88123
C    24.72544 -15.34238 -79.94406
C    24.03269 -16.48825 -80.33874
C    24.24447 -17.68321 -79.64466
C    25.13033 -17.72217 -78.56533
C    27.22515 -15.24456 -76.50270
C    28.54487 -14.77873 -76.48305
C    28.85132 -13.49305 -76.01896
C    27.84233 -12.64537 -75.56359
C    26.51785 -13.09902 -75.57291
C    26.21684 -14.37969 -76.03441
C    28.06997 -17.48003 -77.32289
C    28.97089 -17.95745 -76.44837
C    30.10769 -18.63527 -77.19955
C    30.17647 -20.09154 -76.94836
N    30.24732 -21.23811 -76.79086
C    31.50867 -17.93717 -77.01876
C    32.72627 -18.76746 -77.24082
O    31.52115 -16.74303 -76.81059
O    29.82320 -18.42094 -78.57561
C    28.49714 -17.85766 -78.75115
C    27.71761 -19.11222 -79.23400
O    27.38175 -19.98679 -78.46215
O    27.59757 -19.20989 -80.54626
C    26.95641 -20.39290 -81.05361
C    28.63103 -16.68730 -79.72199
C    29.71529 -15.81298 -79.53983
C    29.88233 -14.69836 -80.36233
C    28.97050 -14.44144 -81.39088
C    27.89323 -15.30846 -81.58162
C    27.72120 -16.41992 -80.75278
H    32.08787 -16.81483 -72.58321
H    31.76890 -15.11549 -73.09174
H    32.56151 -16.26628 -74.22870
H    28.34036 -17.04623 -74.62621
H    28.67895 -20.07528 -74.90502
H    28.71059 -19.33542 -73.31151
H    26.49354 -20.26538 -73.98398
H    26.44687 -18.58892 -73.44079
H    26.47258 -19.35986 -76.40422
H    25.00297 -19.18439 -75.45743
H    24.98171 -16.96931 -75.87792
H    26.36775 -16.82100 -74.83830
H    26.18855 -14.49409 -78.62476
H    24.58121 -14.40138 -80.48001
H    23.33354 -16.45183 -81.17743
H    23.70924 -18.59100 -79.93333
H    25.25725 -18.65971 -78.02900
H    29.35917 -15.41826 -76.81126
H    29.89281 -13.16231 -76.01494
H    28.08091 -11.64249 -75.20162
H    25.71268 -12.45095 -75.21813
H    25.17614 -14.70686 -76.04160
H    33.61804 -18.12942 -77.26760
H    32.81348 -19.50336 -76.42592
H    32.62358 -19.33263 -78.18124
H    25.92587 -20.45099 -80.67542
H    26.95815 -20.28859 -82.14415
H    27.51519 -21.28886 -80.74972
H    30.43798 -16.00399 -78.74939
H    30.73059 -14.02988 -80.19803
H    29.09986 -13.57103 -82.03853
H    27.16618 -15.11762 -82.37417
H    26.86136 -17.06406 -80.90911
