46
Generated by autodE on: 2022-07-03. E = -1002.449131 Ha
C     5.96108  -1.10194   0.28156
O     4.70384  -1.67008   0.67967
C     3.61705  -0.91500   0.50338
O     3.65329   0.21536   0.06033
C     2.35503  -1.67771   0.88395
C     1.21189  -0.77929   0.98774
C     0.22612  -0.18096   0.61551
C    -0.88904   0.23132  -0.24631
C    -0.99019   1.75858  -0.39251
C    -2.19285   2.36026  -0.78850
C    -2.26567   3.74178  -0.99003
C    -1.13631   4.54287  -0.79680
C     0.06860   3.94942  -0.40768
C     0.14074   2.56786  -0.20992
C    -2.19649  -0.34363   0.32262
C    -3.11599  -1.05936  -0.45329
C    -4.31032  -1.52836   0.10851
C    -4.60220  -1.28692   1.45193
C    -3.68862  -0.57181   2.23549
C    -2.49899  -0.10833   1.67379
C    -0.49347  -0.35806  -1.64553
C    -0.04510  -1.83543  -1.68152
C     1.47599  -2.13819  -1.55296
C     2.00416  -2.72111  -0.22659
H     6.17146  -0.19150   0.86094
H     6.71775  -1.86711   0.48944
H     5.94958  -0.85917  -0.79077
H     2.57315  -2.22007   1.81641
H    -3.08300   1.74676  -0.93838
H    -3.21243   4.19356  -1.29622
H    -1.19463   5.62329  -0.94872
H     0.95925   4.56416  -0.25574
H     1.08812   2.10870   0.08156
H    -2.91642  -1.25721  -1.50619
H    -5.01406  -2.08637  -0.51393
H    -5.53407  -1.65390   1.88853
H    -3.90400  -0.37577   3.28870
H    -1.78982   0.44943   2.29051
H    -1.34576  -0.19933  -2.32296
H     0.32051   0.27272  -2.03373
H    -0.36975  -2.22836  -2.65774
H    -0.60505  -2.41901  -0.93265
H     2.05806  -1.23945  -1.82044
H     1.72260  -2.88411  -2.32463
H     1.26027  -3.41350   0.19751
H     2.91366  -3.31046  -0.41935
