29
Generated by autodE on: 2022-07-27. E = -857.978447 Ha
C    -2.08607  -3.09606   0.15558
O    -1.51113  -1.77949   0.28257
C    -0.77750  -1.34451  -0.72903
O    -0.60374  -1.91599  -1.78070
C    -0.20053   0.01453  -0.41825
O     0.49109   0.20968   0.64871
C     1.00072  -0.58227   1.62445
C     0.98548  -1.98506   1.54152
N     1.01811  -3.15260   1.48693
C     1.66737   0.09939   2.70782
C     1.70852   1.60804   2.67007
O     2.18038  -0.55063   3.62798
C    -0.41521   1.14712  -1.28395
C     0.22106   2.38163  -1.00582
C     0.00033   3.47895  -1.82726
C    -0.85083   3.37092  -2.93659
C    -1.48327   2.15566  -3.22034
C    -1.27242   1.04768  -2.40516
H    -2.63163  -3.27270   1.08835
H    -1.28733  -3.83896   0.02857
H    -2.76834  -3.12325  -0.70496
H     2.24513   1.95670   1.77332
H     2.22251   1.97024   3.56951
H     0.69245   2.02900   2.62685
H     0.88742   2.46220  -0.14688
H     0.49669   4.42658  -1.60884
H    -1.01850   4.23664  -3.58098
H    -2.14723   2.07169  -4.08282
H    -1.77187   0.10716  -2.63674
