29
Generated by autodE on: 2022-07-03. E = -857.979340 Ha
C    -0.58227   3.39242  -1.07040
O    -0.31526   1.98056  -1.01141
C    -0.79197   1.32930   0.04023
O    -1.55913   1.78093   0.86019
C    -0.38461  -0.12435  -0.01260
O     0.77377  -0.49375  -0.45000
C     1.94160   0.24033  -0.52444
C     2.90012  -0.36004  -1.36021
N     3.69182  -0.84165  -2.07365
C     2.19441   1.25500   0.44061
C     3.56956   1.86657   0.50911
O     1.30373   1.60414   1.24289
C    -1.31285  -1.18399   0.29061
C    -2.69706  -0.93336   0.46051
C    -3.56425  -1.98602   0.73145
C    -3.07635  -3.29340   0.83974
C    -1.70848  -3.55319   0.67385
C    -0.83102  -2.51275   0.40287
H    -0.08077   3.75374  -1.97469
H    -1.66445   3.57364  -1.13137
H    -0.17010   3.88443  -0.17843
H     3.96675   1.73285   1.52737
H     4.27444   1.44219  -0.21668
H     3.47600   2.94969   0.33120
H    -3.08745   0.07821   0.36847
H    -4.63049  -1.78764   0.85557
H    -3.76319  -4.11438   1.05709
H    -1.32981  -4.57293   0.76601
H     0.23564  -2.70737   0.28994
