75
Generated by autodE on: 2022-07-03. E = -1860.440128 Ha. Imaginary frequency = -227.0 cm-1
C    31.19900 -21.88334 -75.19216
O    30.74482 -20.55645 -74.87826
C    29.62328 -20.14975 -75.46835
O    28.97158 -20.83482 -76.23045
C    29.21157 -18.75494 -75.01202
C    27.98087 -18.95274 -74.07908
C    27.41376 -17.70704 -73.39292
C    26.90846 -16.54846 -74.27453
C    26.05268 -16.94762 -75.49443
C    26.71213 -16.59233 -76.88231
C    25.86347 -17.21732 -78.00811
C    25.24028 -16.47602 -79.01864
C    24.49160 -17.10802 -80.01844
C    24.35922 -18.49688 -80.03122
C    24.98207 -19.25100 -79.02977
C    25.71992 -18.61591 -78.03138
C    26.82830 -15.06381 -76.93747
C    28.06930 -14.42130 -76.88822
C    28.16471 -13.02647 -76.84917
C    27.01012 -12.24373 -76.85297
C    25.75949 -12.87218 -76.87919
C    25.67094 -14.26469 -76.91103
C    28.05948 -17.25106 -76.85350
C    28.83329 -17.91381 -76.15420
C    31.07225 -17.62102 -77.32344
C    31.36162 -18.95179 -77.70293
N    31.63033 -20.04351 -78.01660
C    31.77307 -17.03057 -76.19933
C    31.59290 -15.55865 -75.93998
O    32.43706 -17.75160 -75.44572
O    30.46409 -16.77123 -78.19097
C    29.41814 -17.04007 -78.93339
C    29.29496 -18.43975 -79.54377
O    29.93054 -18.67908 -80.54825
O    28.48974 -19.26960 -78.93072
C    28.36480 -20.59332 -79.48069
C    28.90178 -15.94392 -79.73525
C    29.44250 -14.64499 -79.62819
C    28.92090 -13.60960 -80.39481
C    27.85958 -13.85094 -81.27763
C    27.32924 -15.13903 -81.40075
C    27.84711 -16.18273 -80.63896
H    31.43000 -21.95549 -76.26386
H    30.43184 -22.62388 -74.92514
H    32.10496 -22.03942 -74.59558
H    30.04411 -18.31235 -74.44795
H    27.20026 -19.45327 -74.67146
H    28.28693 -19.66704 -73.29750
H    26.57974 -18.06415 -72.76461
H    28.16744 -17.30508 -72.69480
H    27.76831 -15.94987 -74.60755
H    26.32588 -15.87421 -73.62738
H    25.07264 -16.45066 -75.46856
H    25.84846 -18.02633 -75.48538
H    25.35279 -15.39486 -79.05600
H    24.02380 -16.50339 -80.79916
H    23.78078 -18.99077 -80.81560
H    24.89974 -20.34049 -79.02944
H    26.22168 -19.22134 -77.27500
H    28.97789 -15.01774 -76.87214
H    29.15073 -12.55682 -76.81946
H    27.07939 -11.15371 -76.82665
H    24.84494 -12.27434 -76.86785
H    24.68508 -14.73195 -76.90884
H    30.62984 -15.40741 -75.42512
H    32.39962 -15.21299 -75.28069
H    31.57127 -14.96748 -76.86520
H    27.65954 -21.11864 -78.82976
H    29.34450 -21.09018 -79.46893
H    27.97990 -20.53772 -80.50795
H    30.27214 -14.46029 -78.94679
H    29.34060 -12.60581 -80.30471
H    27.45069 -13.03304 -81.87501
H    26.50165 -15.33121 -82.08610
H    27.41882 -17.18062 -80.73477
