31
Generated by autodE on: 2022-06-18. E = -892.499428 Ha. Imaginary frequency = -449.3 cm-1
C    -4.01230   0.36174   0.13926
N    -2.95453  -0.32103   0.85762
C    -1.89525  -0.83776   0.19711
O    -1.88671  -1.02835  -1.02289
N    -0.85458  -1.18936   1.08610
N     0.19672  -1.79615   0.55848
C     0.91978  -1.21726  -0.43672
C     2.23781  -1.79853  -0.83996
C     2.95270  -2.71291   0.11207
O     2.70208  -1.46705  -1.91951
C     1.35231   0.53639   0.52698
C     1.53925   1.41233  -0.66031
O     2.61567   1.48741  -1.24245
C     0.36085   2.18259  -1.12633
C    -0.72081   2.33747  -0.34191
C    -0.78374   1.74695   1.01851
O    -1.66824   2.08887   1.80525
C     0.23390   0.74954   1.37478
H    -3.62634   1.21236  -0.44759
H    -4.74640   0.73604   0.86297
H    -4.52107  -0.32582  -0.55217
H    -2.81220  -0.09018   1.83592
H     0.72367  -2.32917   1.25386
H     0.33858  -0.79240  -1.25392
H     3.93569  -2.97357  -0.29925
H     2.36604  -3.63323   0.27059
H     3.07526  -2.22537   1.09336
H     2.28772   0.21150   0.98993
H     0.44456   2.65550  -2.10783
H    -1.57633   2.94633  -0.64414
H     0.29791   0.50482   2.43444
