33
Generated by autodE on: 2022-06-17. E = -686.394806 Ha
C     3.21247  -0.25265  -0.11169
C     1.95175  -0.92556  -0.59323
O     1.98075  -2.04602  -1.11398
N     0.77906  -0.23685  -0.46975
N     0.76437   1.04013   0.16838
C     1.09391   2.15469  -0.72734
N    -0.53280   1.13891   0.72239
C    -0.54571   1.07020   2.05651
N    -0.56751   1.09723   3.22380
C    -1.50300   0.33847  -0.09923
C    -1.99156   1.19312  -1.27467
C    -2.71666  -0.06233   0.73282
C    -0.58199  -0.86810  -0.52955
C    -0.63365  -2.01538   0.49001
C    -0.91555  -1.39298  -1.92604
H     3.97402  -1.02999   0.02965
H     3.05137   0.30712   0.81866
H     3.57990   0.45302  -0.87347
H     0.55457   2.13269  -1.68543
H     0.86610   3.08583  -0.19324
H     2.17265   2.13225  -0.92757
H    -2.39275   2.14081  -0.88906
H    -2.79887   0.66753  -1.80266
H    -1.20777   1.41832  -2.00522
H    -3.30422   0.83288   0.98410
H    -3.35328  -0.72970   0.13532
H    -2.45655  -0.57805   1.66439
H    -0.44398  -1.65800   1.51250
H    -1.61522  -2.50723   0.46386
H     0.12819  -2.76369   0.24145
H    -0.31140  -2.28045  -2.14870
H    -1.97773  -1.67767  -1.96551
H    -0.72466  -0.64277  -2.70348
