15
Generated by autodE on: 2022-06-17. E = -450.374491 Ha
C     2.40536  -0.72424  -0.83304
C     1.20290  -0.64087   0.04806
O     1.22484  -0.39358   1.24188
N     0.00223  -1.00264  -0.60085
N    -1.11070  -0.45311  -0.31420
C    -2.32767  -1.19625  -0.70491
N    -1.37583   0.70873   0.21773
C    -0.40866   1.58540   0.41953
N     0.31959   2.48498   0.59771
H     3.31803  -0.62569  -0.23256
H     2.35622   0.09417  -1.57119
H     2.40782  -1.67083  -1.39327
H    -2.03390  -2.21270  -0.97750
H    -3.01076  -1.18781   0.15268
H    -2.78805  -0.67144  -1.55204
