18
Generated by autodE on: 2022-06-17. E = -235.968071 Ha
C     1.42725  -1.35827  -0.06541
C     0.67448  -0.05275   0.02818
C     1.60986   1.12120   0.19071
C    -0.67449   0.05272  -0.02806
C    -1.60988  -1.12117  -0.19091
C    -1.42722   1.35826   0.06554
H     2.12842  -1.33647  -0.91907
H     2.05101  -1.50650   0.83438
H     0.78845  -2.24229  -0.17915
H     1.10706   2.09235   0.26982
H     2.23583   0.99109   1.09176
H     2.31226   1.17303  -0.66064
H    -2.23541  -0.99105  -1.09227
H    -1.10712  -2.09237  -0.26978
H    -2.31269  -1.17293   0.66010
H    -2.12919   1.33600   0.91853
H    -0.78844   2.24215   0.18042
H    -2.05013   1.50711  -0.83475
