33
Generated by autodE on: 2022-06-17. E = -686.326038 Ha. Imaginary frequency = -323.4 cm-1
C     3.38797  -0.08964  -0.16861
C     2.08526  -0.83071  -0.36966
O     2.06751  -1.98565  -0.79300
N     0.91715  -0.21187   0.01694
N     0.78227   1.09442   0.04097
C     1.18123   1.95882  -1.07959
N    -0.23452   1.53579   0.77741
C    -0.31861   1.00509   1.99085
N    -0.46559   0.64183   3.09438
C    -1.85678   0.15455  -0.23030
C    -2.24849   1.17517  -1.26427
C    -2.82839   0.01310   0.90616
C    -1.01333  -0.93764  -0.58345
C    -1.04475  -2.18014   0.27119
C    -0.71114  -1.17047  -2.04635
H     4.18024  -0.82952   0.00624
H     3.34447   0.62622   0.66270
H     3.63472   0.46131  -1.09052
H     1.24496   1.36530  -1.99907
H     0.43531   2.75303  -1.18549
H     2.15780   2.41290  -0.86087
H    -2.64974   2.08224  -0.79159
H    -3.04665   0.75422  -1.90534
H    -1.42481   1.45987  -1.92924
H    -3.21742   0.99213   1.22194
H    -3.69062  -0.59028   0.56436
H    -2.41132  -0.49623   1.78300
H    -0.91989  -1.95125   1.33790
H    -2.01529  -2.69377   0.14992
H    -0.25014  -2.87531  -0.02655
H     0.11420  -1.88185  -2.17266
H    -1.60826  -1.60035  -2.52892
H    -0.46070  -0.24811  -2.58446
