25
Generated by autodE on: 2022-06-01. E = -742.695177 Ha
C    -1.10900   3.55416   0.37711
O    -0.48453   2.27382   0.23746
C    -1.30141   1.19625   0.16526
O    -2.51444   1.29789   0.21804
C    -0.53185  -0.04245   0.02032
N     0.81743   0.10200  -0.03213
C     1.83620  -0.71723  -0.15511
C     3.16128  -0.08016  -0.16308
C     4.34304  -0.99026  -0.30597
O     3.25894   1.14316  -0.05638
C    -1.10353  -1.37998  -0.06985
O    -0.42774  -2.39512  -0.20065
O    -2.44107  -1.41522   0.00492
C    -3.04848  -2.70982  -0.07815
H    -0.29267   4.28415   0.42555
H    -1.70805   3.59375   1.29850
H    -1.75530   3.76565  -0.48728
H     1.12388   1.08848   0.04160
H     1.68048  -1.78735  -0.24427
H     5.27517  -0.41136  -0.30166
H     4.25840  -1.56502  -1.24317
H     4.34901  -1.72375   0.51740
H    -2.70852  -3.35339   0.74657
H    -2.80855  -3.19248  -1.03697
H    -4.12865  -2.53836  -0.00196
