26
Generated by autodE on: 2022-06-01. E = -540.188544 Ha
C     3.61152  -0.43136  -0.22521
O     2.22080  -0.60031   0.06428
C     1.43751   0.49332  -0.06060
O     1.89441   1.57610  -0.40216
C     0.04224   0.19679   0.25977
C    -1.04357   0.96322  -0.03451
C    -1.15135   2.28513  -0.70388
C    -2.26362   0.12637   0.30545
C    -2.31783  -0.98803  -0.79419
C    -1.08607  -1.87555  -0.45508
C    -0.46982  -1.14398   0.77741
C    -1.74503  -0.68341   1.51015
H     4.07635  -1.41219  -0.06888
H     3.75706  -0.10714  -1.26646
H     4.06297   0.31165   0.44903
H    -1.67827   2.99873  -0.04654
H    -1.77225   2.19169  -1.61222
H    -0.17461   2.70213  -0.97373
H    -3.19735   0.69138   0.42255
H    -3.25877  -1.55078  -0.70381
H    -2.27874  -0.56097  -1.80677
H    -1.39103  -2.89721  -0.18254
H    -0.36412  -1.94728  -1.28101
H     0.25484  -1.73701   1.34655
H    -1.53357  -0.05778   2.39017
H    -2.41097  -1.51297   1.79393
