50
Generated by autodE on: 2022-06-05. E = -3611.783176 Ha
C     3.01208  -2.54134  -2.52015
N     2.27075  -2.08524  -1.36531
C     2.80258  -1.29187  -0.42599
O     4.00655  -1.00347  -0.38072
C     1.80009  -0.70302   0.59952
C     2.51609  -0.72096   1.96400
N     0.54303  -1.45770   0.57941
C     0.56180  -2.76389   1.21706
C    -0.63061  -0.61025   0.85436
C    -0.93007  -0.54609   2.36779
C    -1.87407  -1.14201   0.12016
C    -1.77480  -2.09470  -0.90418
C    -2.90518  -2.51752  -1.60962
C    -4.16317  -1.98894  -1.31025
C    -4.27691  -1.03567  -0.29430
C    -3.14608  -0.62250   0.41481
C    -0.18513   0.77633   0.23793
Br   -0.92368   2.30339   1.27273
C    -0.60367   0.98674  -1.26463
C    -0.19220   2.38633  -1.70161
C     1.13817   2.33558  -1.82472
C     1.51910   0.91312  -1.45098
O     0.37655   0.17350  -1.91471
C     1.39185   0.75286   0.12028
C     2.17205   1.84752   0.83692
H     2.50612  -3.40985  -2.96228
H     3.09416  -1.75395  -3.29042
H     4.02830  -2.83424  -2.22248
H     1.25383  -2.11785  -1.35888
H     2.75369  -1.75595   2.24645
H     3.46289  -0.17369   1.91583
H     1.89891  -0.28347   2.75730
H     0.71556  -2.73703   2.31038
H     1.36510  -3.37576   0.78237
H    -0.38740  -3.28417   1.02785
H    -1.12190  -1.56128   2.74038
H    -1.81272   0.05860   2.59489
H    -0.08616  -0.12381   2.92685
H    -0.80120  -2.50936  -1.15951
H    -2.79759  -3.26387  -2.40059
H    -5.04699  -2.31593  -1.86317
H    -5.25210  -0.60765  -0.04942
H    -3.26345   0.13533   1.18942
H    -1.62029   0.66883  -1.50522
H    -0.86243   3.23692  -1.81233
H     1.83775   3.13730  -2.05820
H     2.44991   0.53617  -1.88285
H     3.24508   1.72620   0.62508
H     2.02760   1.82048   1.92323
H     1.86311   2.83979   0.48683
