16
Generated by autodE on: 2022-06-05. E = -2920.439892 Ha
C     1.97762  -1.60630   0.39356
C     0.63221  -1.03131   0.62997
C     0.03198   0.08586   0.20192
Br    0.68677   1.43061  -0.93598
C    -1.44110   0.00391   0.66548
C    -2.10264  -1.13534  -0.14772
C    -1.51954  -2.25185   0.29857
C    -0.51569  -1.77216   1.37258
O    -1.24466  -0.65681   1.92663
H     2.48543  -1.83723   1.34520
H     1.89033  -2.55979  -0.15758
H     2.61303  -0.92525  -0.19058
H    -1.98719   0.94802   0.76456
H    -2.83563  -0.99677  -0.94167
H    -1.64313  -3.28343  -0.02930
H    -0.20951  -2.49118   2.14077
