51
Generated by autodE on: 2022-06-22. E = -1191.567874 Ha
C    -0.23447  -2.73884  -1.59959
C    -0.25098  -2.63135  -0.26392
C    -0.35227  -3.83209   0.63508
C    -0.17297  -1.29577   0.46525
C     0.86793  -0.29109  -0.10797
C     1.77994   0.24280   0.96628
C     3.11348   0.40012   0.88455
C     3.89417   0.93130   2.05644
C     3.93868   0.10038  -0.33647
C    -0.01210   0.79700  -0.82730
C     0.21410   0.84223  -2.35022
C    -0.97462   1.17333  -3.20045
O     1.32054   0.63658  -2.81312
C     0.27181   2.19535  -0.20853
C     1.41154   2.99773  -0.75445
O    -0.44857   2.58986   0.68632
O    -1.37100   0.46031  -0.59835
C    -1.50375  -0.49457   0.43657
C    -2.74012  -1.37978   0.17553
C    -3.43955  -1.24177  -1.13748
O    -3.10738  -2.12717   1.06407
C    -1.77303   0.23482   1.77156
O    -1.13092   0.10102   2.78923
O    -2.83626   1.02287   1.65354
C    -3.17084   1.83635   2.78928
H    -0.31037  -3.71769  -2.08216
H    -0.14004  -1.87557  -2.26170
H    -0.45809  -4.76559   0.06372
H     0.54835  -3.90747   1.26944
H    -1.20955  -3.73548   1.32055
H     0.06234  -1.49911   1.51545
H     1.46351  -0.78528  -0.87943
H     1.28550   0.51777   1.90271
H     4.68890   0.22321   2.35032
H     4.40369   1.87359   1.78808
H     3.25320   1.11909   2.93028
H     3.34485  -0.20881  -1.20477
H     4.67982  -0.68796  -0.11691
H     4.51748   0.99474  -0.62546
H    -1.51478   2.04054  -2.79034
H    -1.67800   0.32595  -3.18546
H    -0.65076   1.36753  -4.23077
H     1.05530   3.50330  -1.66975
H     1.71278   3.75980  -0.02441
H     2.26242   2.36815  -1.04085
H    -4.26539  -1.96223  -1.19294
H    -3.82438  -0.21311  -1.22702
H    -2.73385  -1.39417  -1.96639
H    -2.34259   2.52406   3.01195
H    -4.06686   2.39887   2.50410
H    -3.37684   1.20667   3.66621
