23
Generated by autodE on: 2022-06-22. E = -351.521382 Ha
C    -3.61239  -0.64875   0.91080
C    -2.55439  -0.38988   0.11113
C    -2.71981  -0.22506  -1.37808
C    -1.21706  -0.26544   0.68757
C    -0.07825  -0.00857  -0.00388
C     1.22512   0.10335   0.61857
C     2.40724   0.35427   0.00111
C     3.68327   0.44035   0.78989
C     2.56552   0.56361  -1.47820
H    -4.62362  -0.74734   0.50635
H    -3.48880  -0.76813   1.99163
H    -2.11695  -0.96595  -1.92913
H    -3.77067  -0.34339  -1.67758
H    -2.37527   0.76887  -1.70884
H    -1.15047  -0.39495   1.77456
H    -0.13660   0.12163  -1.08787
H     1.24293  -0.03245   1.70675
H     4.41538  -0.30601   0.43237
H     3.51940   0.27955   1.86557
H     4.16247   1.42647   0.65283
H     3.26490  -0.18194  -1.89624
H     1.62346   0.49941  -2.03767
H     3.01745   1.55131  -1.67784
