28
Generated by autodE on: 2022-06-22. E = -839.964371 Ha
C     3.00983  -1.11338   2.61249
O     1.90231  -0.73892   1.78224
C     2.11965  -0.75081   0.45821
O     3.19462  -1.04281  -0.04002
C     0.93893  -0.34296  -0.30706
O    -0.13950  -0.13012   0.46234
C    -1.27852   0.40404   0.19267
C    -1.46847   1.36987  -0.95517
C    -2.72043   1.30935  -1.76912
O    -0.63721   2.25961  -1.03692
C    -2.27958   0.28426   1.28615
C    -1.91700  -0.56695   2.46611
O    -3.35032   0.86543   1.16690
C     0.75471  -0.47707  -1.73386
C     1.88848  -0.94478  -2.60182
O    -0.36741  -0.26369  -2.22324
H     3.85862  -0.43235   2.45414
H     2.65015  -1.03607   3.64492
H     3.32457  -2.14473   2.39647
H    -3.10404   0.28407  -1.84736
H    -3.48375   1.92777  -1.27030
H    -2.52188   1.73026  -2.76424
H    -1.82766  -1.61893   2.14846
H    -2.69741  -0.47506   3.23148
H    -0.93779  -0.27252   2.87334
H     2.71697  -0.22154  -2.55851
H     2.28664  -1.90894  -2.25539
H     1.52079  -1.03229  -3.63217
