51
Generated by autodE on: 2022-06-22. E = -1191.494116 Ha. Imaginary frequency = -184.4 cm-1
C     0.07159  -2.48038  -1.84724
C    -0.19532  -2.61439  -0.53372
C    -0.84367  -3.85952   0.01624
C     0.14721  -1.58060   0.46471
C     1.20316  -0.69321   0.27080
C     1.79134   0.07518   1.32281
C     2.97493   0.75238   1.24835
C     3.47060   1.52940   2.42777
C     3.87761   0.76093   0.05269
C    -0.50977   1.18312  -1.17158
C    -0.36951   1.15253  -2.62939
C    -1.42482   0.41514  -3.41984
O     0.56946   1.71104  -3.20175
C     0.14786   2.10734  -0.27457
C     1.27529   2.96597  -0.77938
O    -0.20714   2.20034   0.90965
O    -1.51789   0.38904  -0.74750
C    -1.76064  -0.18857   0.40348
C    -2.84300  -1.21688   0.34394
C    -3.39396  -1.59814  -0.99479
O    -3.23869  -1.70249   1.39803
C    -1.72448   0.51118   1.75437
O    -1.11089   0.14011   2.72858
O    -2.66766   1.45563   1.76773
C    -2.79886   2.20501   2.98601
H     0.55100  -1.58957  -2.25755
H    -0.18013  -3.27694  -2.55214
H    -0.15893  -4.36717   0.71729
H    -1.10675  -4.56470  -0.78466
H    -1.75298  -3.62518   0.59030
H    -0.15745  -1.77718   1.49510
H     1.68941  -0.68554  -0.70581
H     1.24584   0.10508   2.26797
H     3.56378   2.59749   2.16118
H     2.80347   1.44100   3.29654
H     4.48365   1.19801   2.71644
H     3.43223   0.31776  -0.84642
H     4.19640   1.78974  -0.17866
H     4.79937   0.19964   0.28986
H    -2.42512   0.82408  -3.20990
H    -1.44606  -0.64985  -3.14833
H    -1.19613   0.51853  -4.48812
H     0.90556   3.68024  -1.53137
H     1.69568   3.51193   0.07532
H     2.04910   2.36455  -1.26963
H    -3.79916  -0.70903  -1.50202
H    -2.59332  -1.99727  -1.63548
H    -4.18206  -2.34865  -0.85812
H    -1.85680   2.72669   3.20793
H    -3.60249   2.92897   2.80984
H    -3.06002   1.54008   3.82143
