47
Generated by autodE on: 2022-06-04. E = -3779.797311 Ha
C    -4.77025  -0.70522   0.29518
O    -3.42445  -0.78566   0.78426
C    -2.45268  -0.44915  -0.07067
O    -2.65746  -0.14816  -1.22218
C    -1.10969  -0.41676   0.65901
C    -1.00051  -1.53359   1.74152
C    -1.18466  -2.89086   1.01475
C     0.17565  -3.08995   0.28557
C     0.93680  -1.78273   0.60147
C     0.50026  -1.59365   2.06971
C     0.25613  -0.59877  -0.13379
Br    0.18557  -0.97488  -2.07548
C     0.94571   0.81852   0.05662
C     2.43062   0.87397  -0.15952
C     3.29132   0.67323   0.93078
C     4.67611   0.67518   0.74929
C     5.21700   0.87528  -0.52410
C     4.36432   1.07522  -1.61340
C     2.97848   1.07480  -1.43575
N     0.49336   1.15548   1.41892
C    -0.90649   1.06631   1.15515
C    -1.87217   1.56053   2.23214
C    -1.39967   1.50542   3.64856
O    -2.96460   1.96421   1.88909
O    -1.09772   1.90427  -0.04950
C     0.05828   1.80610  -0.75165
O     0.26103   2.42527  -1.76148
H    -4.91169  -1.38537  -0.55665
H    -5.41253  -1.00374   1.13139
H    -4.99859   0.32518  -0.01310
H    -1.68406  -1.37818   2.58284
H    -2.03880  -2.89901   0.32395
H    -1.36409  -3.68184   1.75630
H     0.73895  -3.93067   0.71430
H     0.06399  -3.27929  -0.78783
H     2.01383  -1.82598   0.40253
H     0.89884  -0.70700   2.56148
H     0.74143  -2.48515   2.66704
H     2.87379   0.51038   1.92455
H     5.33370   0.51814   1.60736
H     6.30016   0.87695  -0.66702
H     4.77849   1.23511  -2.61160
H     2.32326   1.23905  -2.28850
H     0.76805   2.10745   1.67601
H    -0.57180   2.22240   3.78111
H    -2.22370   1.76276   4.32562
H    -0.99651   0.50980   3.88819
