48
Generated by autodE on: 2022-06-03. E = -1269.318536 Ha
C     3.54572   1.32441   1.96564
O     2.96231   0.61032   0.86914
C     2.06077  -0.33362   1.17162
O     1.77962  -0.65023   2.31540
C     1.46212  -0.91456  -0.02882
C     0.52401  -1.87741  -0.09959
F     0.00200  -2.59273   0.87410
C     0.10453  -2.00071  -1.55253
O     1.35574  -1.70006  -2.19311
C     1.61768  -0.47388  -1.48350
C     0.35259   0.36481  -1.89009
C    -0.19811   1.28621  -0.82571
C     0.57141   2.43539  -0.30693
C     1.67430   2.93832  -1.01821
C     2.42233   4.00111  -0.50726
C     2.08442   4.56901   0.72432
C     0.98904   4.07283   1.44183
C     0.23716   3.01684   0.92970
N    -1.35292   0.96448  -0.37102
C    -1.89881  -0.19946  -1.09360
C    -3.02731   0.32209  -2.00204
C    -2.46796  -1.23234  -0.12683
C    -2.56593  -0.98578   1.24822
C    -3.07768  -1.95901   2.11237
C    -3.50019  -3.19363   1.61389
C    -3.41400  -3.44607   0.24031
C    -2.90636  -2.47178  -0.62107
C    -0.72864  -0.73856  -1.97601
H     4.12116   0.64163   2.60759
H     4.20735   2.07501   1.51929
H     2.76321   1.81548   2.56121
H    -0.29674  -2.96991  -1.86220
H     2.58569  -0.04785  -1.76027
H     0.54350   0.88058  -2.84042
H     1.95397   2.49839  -1.97674
H     3.27615   4.38319  -1.07131
H     2.67605   5.39373   1.12847
H     0.72560   4.50855   2.40838
H    -0.61026   2.62004   1.48989
H    -2.62712   1.05081  -2.72398
H    -3.48786  -0.50649  -2.55938
H    -3.80401   0.81456  -1.39870
H    -2.22310  -0.03037   1.64347
H    -3.14004  -1.75071   3.18346
H    -3.89456  -3.95606   2.28993
H    -3.74275  -4.40725  -0.16242
H    -2.84325  -2.68186  -1.69147
H    -1.05855  -0.91806  -3.00540
