19
Generated by autodE on: 2022-06-03. E = -634.779116 Ha
C     3.55651   1.02658  -0.12553
O     2.14945   0.96476   0.13867
C     1.53522  -0.20069  -0.13094
O     2.11713  -1.17548  -0.57871
C     0.11357  -0.13894   0.17653
C    -0.85073  -1.03264  -0.10176
F    -0.77027  -2.20142  -0.69776
C    -2.18957  -0.40190   0.31179
C    -2.45107   0.75615  -0.68039
C    -1.51875   1.66749  -0.38957
C    -0.69288   1.04835   0.76149
O    -1.73253   0.32775   1.46144
H     3.87309   2.03808   0.15427
H     3.75827   0.84752  -1.19188
H     4.09606   0.28005   0.47564
H    -3.00878  -1.09428   0.53183
H    -3.21203   0.74985  -1.45942
H    -1.30671   2.62405  -0.86562
H    -0.14243   1.72702   1.41937
