29
Generated by autodE on: 2022-06-03. E = -634.411626 Ha
C     1.16614   2.78911   0.87219
C     1.01972   1.30856   0.64083
N    -0.04534   0.70798   1.03256
C    -0.97738   0.03384   1.47557
C    -2.18162  -0.29641   0.69723
C    -3.29921  -0.83069   1.36181
C    -4.45221  -1.16539   0.64883
C    -4.49015  -0.99023  -0.73820
C    -3.37660  -0.47224  -1.41328
C    -2.23139  -0.12086  -0.70151
C     2.08411   0.52473  -0.01082
C     1.93358  -0.85959  -0.24345
C     2.94891  -1.59443  -0.85218
C     4.13690  -0.96829  -1.25057
C     4.29588   0.40293  -1.03023
C     3.28336   1.14439  -0.41730
H     0.26783   3.19175   1.35817
H     1.32037   3.32596  -0.07791
H     2.03741   3.00364   1.51330
H    -3.24998  -0.97614   2.44322
H    -5.31994  -1.57179   1.17333
H    -5.38846  -1.26138  -1.29804
H    -3.40749  -0.34030  -2.49746
H    -1.36087   0.28696  -1.22142
H     1.00910  -1.35930   0.05261
H     2.81142  -2.66514  -1.02209
H     4.92992  -1.54559  -1.73135
H     5.21762   0.90355  -1.33670
H     3.43087   2.21233  -0.25228
