48
Generated by autodE on: 2022-06-03. E = -1269.199763 Ha. Imaginary frequency = -211.9 cm-1
C     3.11598   1.28691   2.09278
O     2.80658   0.53946   0.91244
C     1.85020  -0.40131   1.02039
O     1.31754  -0.67918   2.08732
C     1.55605  -1.01978  -0.25882
C     0.75091  -2.06494  -0.54169
F     0.01951  -2.80472   0.26910
C     0.71859  -2.22595  -2.05730
O     2.08622  -1.84368  -2.34462
C     2.00412  -0.56613  -1.66415
C     0.75947   0.06159  -2.35216
C    -0.10229   1.23933  -0.69111
C     0.49707   2.45335  -0.15886
C     1.64267   2.99951  -0.76554
C     2.25719   4.12475  -0.21679
C     1.75343   4.70010   0.95498
C     0.62229   4.15404   1.57340
C    -0.00973   3.04302   1.01811
N    -1.22908   0.77670  -0.53295
C    -2.19878  -0.03973  -0.83404
C    -3.02317   0.25272  -2.06218
C    -2.65151  -1.00881   0.17237
C    -2.02267  -1.08773   1.43358
C    -2.44262  -2.01540   2.38269
C    -3.50391  -2.88543   2.10240
C    -4.14134  -2.81187   0.85970
C    -3.72609  -1.88193  -0.09518
C    -0.05016  -1.01907  -2.60566
H     3.53971   0.63055   2.86720
H     3.85377   2.03873   1.79044
H     2.21482   1.77882   2.48500
H     0.45765  -3.21982  -2.43641
H     2.94465  -0.01102  -1.71967
H     0.79740   0.99203  -2.91832
H     2.05033   2.53504  -1.66424
H     3.14180   4.54800  -0.69756
H     2.24569   5.57276   1.39033
H     0.23085   4.59904   2.49102
H    -0.89047   2.60904   1.49551
H    -2.49193   0.94966  -2.72302
H    -3.24068  -0.66668  -2.62399
H    -3.99203   0.70275  -1.78261
H    -1.18968  -0.42178   1.66092
H    -1.93482  -2.06285   3.34912
H    -3.83271  -3.61282   2.84819
H    -4.97258  -3.48306   0.63034
H    -4.23760  -1.84186  -1.05749
H    -0.96167  -1.08448  -3.19142
