29
Generated by autodE on: 2022-06-02. E = -596.536913 Ha
C     3.00629   2.15984   0.58076
C     2.76881   0.68978   0.26154
O     3.75103  -0.09623   0.41789
C     1.46607   0.38393  -0.16666
N     0.96877  -0.86898  -0.54670
C     1.93707  -1.88927  -0.99806
C    -0.32138  -1.15198  -0.63394
C    -0.76450  -2.41984  -1.29684
C    -1.34708  -0.23248  -0.09780
C    -2.46758   0.10265  -0.87928
C    -3.47431   0.92234  -0.36335
C    -3.38923   1.39865   0.94728
C    -2.28707   1.05475   1.74024
C    -1.27041   0.25511   1.22234
H     3.35852   2.24904   1.62213
H     3.81733   2.54166  -0.06215
H     2.11821   2.79385   0.44825
H     0.72306   1.17519  -0.17472
H     2.93157  -1.57281  -0.67621
H     1.69188  -2.85964  -0.55139
H     1.88881  -1.97425  -2.09260
H    -0.42241  -3.30370  -0.73208
H    -1.85803  -2.46103  -1.34728
H    -0.35912  -2.51449  -2.31768
H    -2.54483  -0.27183  -1.90209
H    -4.33055   1.18514  -0.98875
H    -4.18014   2.03331   1.35361
H    -2.22070   1.41220   2.77042
H    -0.41332  -0.00422   1.84610
