29
Generated by autodE on: 2022-07-27. E = -596.538787 Ha
C    -4.48671   0.05072   1.47944
C    -3.20068   0.72387   1.01761
O    -3.21077   1.98549   0.94733
C    -2.14162  -0.16394   0.73447
N    -0.86667   0.15343   0.25849
C    -0.68716   1.47617  -0.37342
C     0.14730  -0.69612   0.35614
C    -0.02594  -1.94324   1.15739
C     1.42486  -0.47618  -0.35099
C     1.46870  -0.18876  -1.72947
C     2.69143  -0.02985  -2.38257
C     3.89110  -0.15143  -1.67423
C     3.86048  -0.44741  -0.30731
C     2.64048  -0.61944   0.34681
H    -4.76307   0.44619   2.47112
H    -4.42300  -1.04503   1.53566
H    -5.30193   0.32642   0.78955
H    -2.30622  -1.22062   0.91418
H    -1.30808   2.18595   0.17843
H    -1.03829   1.44087  -1.41337
H     0.36576   1.76666  -0.34261
H     0.93846  -2.43832   1.31880
H    -0.68230  -2.65930   0.62937
H    -0.50351  -1.72938   2.12843
H     0.54080  -0.10966  -2.29745
H     2.70633   0.18472  -3.45366
H     4.84704  -0.02238  -2.18698
H     4.79273  -0.54552   0.25365
H     2.62621  -0.84872   1.41439
