47
Generated by autodE on: 2022-06-02. E = -3630.361179 Ha. Imaginary frequency = -244.9 cm-1
C    -3.45682   1.78942   2.32141
C    -2.29641   2.15656   1.42194
O    -2.40777   3.09275   0.61724
C    -1.11769   1.32517   1.56551
N     0.12599   1.60735   1.08477
C     0.39768   2.95429   0.55380
C     1.04406   0.58563   1.02370
C     0.97051  -0.44008   2.13034
C     2.37322   0.81270   0.39995
C     2.53046   1.46942  -0.84095
C     3.78664   1.61856  -1.42722
C     4.92941   1.12367  -0.79196
C     4.79729   0.47661   0.43902
C     3.53959   0.31871   1.02270
C    -0.22552  -0.72570  -0.50200
Br    0.48108  -2.49077  -0.28939
C    -0.01311  -0.13040  -1.91093
C    -0.96203  -0.86030  -2.88157
C    -2.18641  -0.43403  -2.55259
C    -1.96580   0.53121  -1.37357
O    -0.69953   1.11441  -1.73826
C    -1.54071  -0.34811  -0.16708
C    -2.49485  -1.07164   0.66891
C    -3.94775  -0.98867   0.26442
O    -2.15268  -1.72776   1.65666
H    -3.41977   2.44510   3.20909
H    -3.41902   0.75019   2.67443
H    -4.40547   1.98183   1.80092
H    -1.18513   0.52014   2.28617
H     0.07139   3.05094  -0.48584
H     1.46876   3.15814   0.63562
H    -0.14618   3.67835   1.16583
H     1.71970  -1.22177   1.98522
H     0.00001  -0.94224   2.19189
H     1.16936   0.05732   3.09672
H     1.66440   1.86283  -1.36525
H     3.87000   2.12467  -2.39174
H     5.91297   1.24199  -1.25235
H     5.67968   0.09016   0.95440
H     3.47400  -0.18350   1.98686
H     1.02396  -0.00204  -2.23277
H    -0.65533  -1.59709  -3.62270
H    -3.15636  -0.73233  -2.94863
H    -2.72248   1.29897  -1.19022
H    -4.25701   0.05157   0.08475
H    -4.09653  -1.53720  -0.68099
H    -4.57754  -1.43739   1.04367
