52
Generated by autodE on: 2022-06-03. E = -1300.939440 Ha
C    -2.05060   3.87131   2.81668
N    -1.67983   3.30682   1.53634
C    -0.40006   3.08736   1.19763
O     0.55703   3.50090   1.86126
C    -0.20326   2.30879  -0.10912
N    -1.37438   1.48567  -0.44173
C    -1.10935   0.15834   0.15213
C    -1.51866   0.25034   1.65519
C    -2.98734   0.35533   1.96411
O    -0.68182   0.21739   2.53925
C    -1.93874  -0.95242  -0.46775
C    -1.65584  -2.28251  -0.11274
C    -2.40776  -3.33412  -0.63706
C    -3.45811  -3.07309  -1.52462
C    -3.74765  -1.75388  -1.87940
C    -2.99596  -0.69868  -1.35064
C     0.41999  -0.05936   0.04013
C     0.91610  -0.64181  -1.31802
O     0.89930   0.50416  -2.18328
C     1.79031   1.30253  -1.39158
C     2.97341   0.36495  -1.17207
C     4.34317   0.85902  -0.89580
C     2.41288  -0.86725  -1.14105
C     2.93240  -2.16901  -0.73111
O     2.20819  -3.08678  -0.37013
O     4.26835  -2.27537  -0.78287
C     4.83083  -3.52359  -0.35723
C     1.02456   1.37533  -0.03614
H    -3.14334   3.94767   2.87217
H    -1.61874   4.87520   2.94757
H    -1.69488   3.23774   3.64678
H    -2.37527   2.84322   0.95734
H    -0.07195   3.07244  -0.89157
H    -1.39979   1.36780  -1.45400
H    -3.55736   0.81438   1.14719
H    -3.37329  -0.66799   2.10555
H    -3.13056   0.90893   2.90185
H    -0.82908  -2.49754   0.56794
H    -2.17062  -4.36253  -0.35473
H    -4.04658  -3.89593  -1.93711
H    -4.56628  -1.53837  -2.57014
H    -3.24495   0.32583  -1.62869
H     0.79569  -0.65316   0.87801
H     0.33928  -1.46905  -1.73904
H     2.00156   2.26778  -1.86629
H     4.73469   1.40023  -1.77437
H     4.30911   1.59293  -0.07178
H     5.03591   0.05188  -0.63206
H     4.46303  -4.34788  -0.98546
H     4.57508  -3.72564   0.69319
H     5.91632  -3.41898  -0.46865
H     1.68487   1.64087   0.79592
