22
Generated by autodE on: 2022-06-03. E = -574.845910 Ha
C    -3.40118  -1.21225   0.55431
O    -2.02695  -1.07592   0.17627
C    -1.50917   0.16864   0.21040
O    -2.16804   1.14306   0.54303
C    -0.10704   0.17224  -0.18825
C     0.80504   1.16300  -0.07616
C     0.72993   2.54757   0.43911
C     2.13232   0.50340  -0.52976
C     2.52435  -0.50212   0.57493
C     1.62615  -1.48643   0.47066
C     0.69673  -1.05520  -0.68557
O     1.64261  -0.38992  -1.54415
H    -3.63625  -2.27943   0.46522
H    -3.55416  -0.87662   1.59069
H    -4.04792  -0.62514  -0.11437
H     1.44259   2.66664   1.27472
H     1.04911   3.26111  -0.34014
H    -0.27849   2.81000   0.77938
H     2.90828   1.18081  -0.90289
H     3.32894  -0.36062   1.29547
H     1.49402  -2.37836   1.08223
H     0.13665  -1.83590  -1.20853
