41
Generated by autodE on: 2022-07-27. E = -941.099928 Ha
C    -1.94851  -1.22838   2.84990
C    -2.48993  -0.15723   1.91302
O    -3.43214   0.54697   2.33628
C    -1.88685   0.00923   0.62788
C    -2.18992   1.02345  -0.34649
C    -3.28762   2.02378  -0.05892
O    -1.56554   1.11328  -1.42659
N    -0.88151  -0.92279   0.18145
C    -1.36945  -2.26010  -0.18222
C     0.31628  -0.49343  -0.14439
C     1.18762  -1.24827  -1.06542
C     2.51943  -1.51542  -0.70314
C     3.35811  -2.19566  -1.58551
C     2.88704  -2.57756  -2.84635
C     1.57240  -2.28268  -3.22360
C     0.71970  -1.62722  -2.33634
C     0.84696   0.76963   0.40475
C     1.51492   1.66023  -0.45263
C     2.04365   2.85083   0.04747
C     1.93583   3.14662   1.40942
C     1.29584   2.24878   2.27265
C     0.74378   1.07013   1.77507
H    -1.83525  -0.77774   3.84752
H    -0.99156  -1.67061   2.54624
H    -2.69531  -2.03421   2.94276
H    -3.05651   2.60315   0.84753
H    -4.24941   1.52599   0.12920
H    -3.37363   2.69931  -0.92128
H    -0.53683  -2.96330  -0.29218
H    -1.94360  -2.20147  -1.11749
H    -2.04004  -2.60686   0.61196
H     2.88615  -1.20056   0.27541
H     4.38602  -2.41978  -1.29284
H     3.54992  -3.09790  -3.54142
H     1.21048  -2.56096  -4.21565
H    -0.29825  -1.37453  -2.63447
H     1.59850   1.42447  -1.51447
H     2.54578   3.54671  -0.62793
H     2.35837   4.07413   1.80256
H     1.22811   2.46786   3.34038
H     0.25757   0.36946   2.45288
