55
Generated by autodE on: 2022-06-06. E = -1800.483338 Ha. Imaginary frequency = -226.9 cm-1
C    -2.90268  -1.72100   1.68114
C    -2.43829  -0.28336   1.74416
O    -3.26946   0.58411   2.08876
C    -1.12822   0.18689   1.33271
C    -0.94932   1.66011   1.74422
C    -0.79367   1.87421   3.23456
O    -0.99844   2.60488   0.98076
C    -1.82703   0.61806  -0.92466
C    -2.65567  -0.57623  -1.42328
O    -1.62660  -1.55255  -1.64498
C    -0.80937  -0.72366  -2.48854
C    -1.86032  -0.35304  -3.55560
Cl   -1.49004  -0.00656  -5.18320
C    -3.03915  -0.26214  -2.90341
C    -4.29810   0.13832  -3.38234
N    -5.35264   0.46232  -3.76146
C    -0.64130   0.52179  -1.61134
C     0.99887  -0.20263   0.23519
C     1.88340  -1.19903  -0.40729
C     3.27295  -0.96156  -0.50607
C     4.11691  -1.86989  -1.14470
C     3.60066  -3.04232  -1.70373
C     2.22787  -3.29675  -1.61418
C     1.38182  -2.39151  -0.97768
C     1.60969   1.13132   0.49989
C     2.02262   2.01717  -0.50947
C     2.65787   3.21531  -0.18772
C     2.91863   3.54314   1.14859
C     2.56778   2.64382   2.15671
C     1.92972   1.44434   1.83293
N    -0.03441  -0.61642   1.03968
C     0.00502  -1.98851   1.60193
H    -3.99975  -1.70815   1.63112
H    -2.61041  -2.25326   2.59984
H    -2.50141  -2.27816   0.82803
H    -0.24809   1.05512   3.72079
H    -1.80858   1.89776   3.66127
H    -0.30482   2.83815   3.42644
H    -2.27991   1.51913  -0.52580
H    -3.47307  -0.95554  -0.80573
H     0.08150  -1.23920  -2.85819
H     0.02170   1.34032  -1.86517
H     3.70119  -0.06293  -0.06380
H     5.18784  -1.66109  -1.19900
H     4.26188  -3.75275  -2.20511
H     1.80847  -4.20563  -2.05177
H     0.31608  -2.60201  -0.94152
H     1.85769   1.76576  -1.55650
H     2.95530   3.89845  -0.98660
H     3.41085   4.48616   1.39705
H     2.79519   2.86905   3.20118
H     1.69040   0.73001   2.62058
H     1.05064  -2.30127   1.67734
H    -0.41275  -1.95229   2.61228
H    -0.54260  -2.72265   1.00570
