35
Generated by autodE on: 2022-10-21. E = -902.903224 Ha
C     3.56570   0.01636   1.43022
O     2.39127   0.39535   0.69505
C     2.09975  -0.31835  -0.38585
O     2.79255  -1.21602  -0.81236
C     0.77314   0.12946  -1.02993
C     0.74511  -0.28807  -2.49177
N     0.77188   1.62447  -0.93065
N    -0.02818   2.06896  -0.10158
C    -0.84433   1.01813   0.53763
F    -0.59994   1.08221   1.88441
C    -2.31742   1.19959   0.17723
C    -3.12003   0.13475   0.95094
C    -2.75925  -1.18464   0.20986
C    -1.73029  -0.73580  -0.85692
C    -2.32351   0.63315  -1.25382
C    -0.42030  -0.33887  -0.12347
O    -0.00085  -1.25869   0.86207
C     0.17107  -2.60440   0.42152
H     3.63785   0.72168   2.26562
H     3.45876  -1.01169   1.80495
H     4.45662   0.08563   0.79044
H     0.76532  -1.38273  -2.56981
H    -0.15687   0.08301  -2.99312
H     1.62348   0.11612  -3.01433
H    -2.65833   2.23365   0.31204
H    -2.84572   0.11296   2.01407
H    -4.19351   0.36044   0.88608
H    -3.63591  -1.60830  -0.30019
H    -2.37000  -1.94882   0.89119
H    -1.58451  -1.45644  -1.66938
H    -3.34106   0.53776  -1.65789
H    -1.72431   1.21256  -1.96808
H    -0.79095  -3.08775   0.19040
H     0.82286  -2.67351  -0.46146
H     0.64587  -3.14361   1.25265
