21
Generated by autodE on: 2022-10-21. E = -486.709703 Ha
C     2.69146   0.61432   0.79635
O     1.65809   1.19047  -0.00090
C     0.58413   0.41434  -0.26902
C     0.25809  -0.85928   0.02690
F     0.95516  -1.76154   0.75506
C    -1.19490  -1.08093  -0.33003
C    -2.04060  -0.24722   0.68883
C    -1.66798   1.22077   0.32150
C    -0.66574   1.03928  -0.86568
C    -1.28681  -0.17921  -1.57849
H     3.46777   1.38249   0.90877
H     2.31099   0.32971   1.79044
H     3.12386  -0.27202   0.30469
H    -1.49270  -2.13245  -0.43415
H    -1.79000  -0.50820   1.72702
H    -3.11476  -0.43750   0.54238
H    -2.55064   1.78854  -0.00925
H    -1.20659   1.77064   1.15442
H    -0.48014   1.94347  -1.45982
H    -2.32191  -0.00195  -1.90899
H    -0.67944  -0.54411  -2.41906
