35
Generated by autodE on: 2022-10-21. E = -902.828194 Ha. Imaginary frequency = -416.2 cm-1
C     3.32401   0.47938   1.56774
O     2.39239   0.81859   0.53502
C     2.22877  -0.07870  -0.44889
O     2.88531  -1.10473  -0.53647
C     1.12100   0.25329  -1.35507
C     1.02094  -0.45346  -2.67407
N     0.71378   1.54983  -1.27578
N    -0.03814   2.21533  -0.69190
C    -1.07689   0.81262   0.56211
F    -0.76168   1.36976   1.75816
C    -2.48707   0.91930   0.03554
C    -3.34689  -0.06456   0.88596
C    -2.81894  -1.46309   0.44713
C    -1.69845  -1.11304  -0.58877
C    -2.33065   0.11656  -1.26999
C    -0.59659  -0.46502   0.23697
O     0.16054  -1.15505   1.13777
C     0.47145  -2.50953   0.80881
H     4.32670   0.30797   1.15035
H     3.34105   1.33614   2.25157
H     2.98924  -0.42197   2.10208
H     1.04936  -1.53635  -2.49276
H     0.07643  -0.21168  -3.17948
H     1.85696  -0.20313  -3.34950
H    -2.88169   1.94067  -0.04311
H    -3.21868   0.12165   1.96208
H    -4.41364   0.05857   0.64744
H    -3.60366  -2.05682  -0.04433
H    -2.42856  -2.05205   1.28816
H    -1.39464  -1.94245  -1.23820
H    -1.69117   0.60004  -2.01793
H    -3.30032  -0.12331  -1.72922
H    -0.41136  -3.15682   0.93252
H     0.84640  -2.59757  -0.21977
H     1.25471  -2.83094   1.50724
