44
Generated by autodE on: 2022-05-30. E = -1033.877779 Ha
C    -1.80627   3.07896   1.16941
N    -1.28999   1.96370   0.40206
C    -1.85985   0.74560   0.49369
O    -2.95305   0.57321   1.04344
C    -1.13808  -0.39599  -0.24562
C    -0.99044   0.02519  -1.70640
C    -2.19503   0.28974  -2.54445
N     0.20263   0.08803  -2.16571
C     1.16535  -0.27566  -1.12738
C     2.02258   0.95384  -0.86523
O     1.59306   1.96849  -0.34288
O     3.27553   0.81371  -1.27070
C     4.16360   1.92368  -1.04289
C     0.35398  -0.74499   0.12795
C     0.88381  -0.21559   1.45270
C     2.34269  -0.45745   1.75963
O     0.15237   0.28308   2.29090
C     0.31233  -2.31922   0.22283
C    -0.37147  -2.74588   1.53664
C    -1.83681  -2.26906   1.32858
C    -1.85117  -1.77314  -0.13933
C    -0.79426  -2.68913  -0.78323
H    -1.26806   3.99130   0.88176
H    -1.67685   2.91913   2.25443
H    -2.87849   3.22341   0.97354
H    -0.32220   2.02617   0.08188
H    -2.90445   0.95204  -2.02543
H    -1.91270   0.73379  -3.50774
H    -2.72475  -0.65852  -2.73502
H     1.82176  -1.07363  -1.49773
H     3.79985   2.81633  -1.57045
H     4.23348   2.13167   0.03420
H     5.13744   1.61439  -1.43793
H     2.38904  -1.32141   2.44375
H     2.95559  -0.69429   0.88186
H     2.75503   0.41200   2.29049
H     1.30290  -2.76265   0.05793
H     0.09133  -2.33213   2.44202
H    -0.31600  -3.84101   1.62066
H    -2.12517  -1.47807   2.02920
H    -2.55014  -3.09744   1.44919
H    -2.84707  -1.76885  -0.59824
H    -1.06057  -3.75421  -0.71855
H    -0.55981  -2.45189  -1.82893
