15
Generated by autodE on: 2022-05-30. E = -400.074705 Ha
C     3.03862   1.70963  -0.80604
C     2.11629   0.68278  -0.37966
N     1.38592  -0.15322  -0.02830
C     0.50674  -1.08757   0.36636
C    -0.88948  -0.82965   0.35639
O    -1.76776  -1.62756   0.69984
O    -1.20499   0.43079  -0.08404
C    -2.59095   0.75872  -0.11833
H     4.05542   1.28495  -0.77919
H     2.82049   2.02694  -1.83817
H     3.00238   2.58002  -0.13165
H     0.89973  -2.04847   0.69391
H    -2.65340   1.79007  -0.48890
H    -3.14529   0.08978  -0.79530
H    -3.04257   0.69932   0.88440
