29
Generated by autodE on: 2022-05-30. E = -633.710930 Ha
C    -3.64631   1.11941   0.24573
N    -2.37205   0.51341  -0.07550
C    -1.23519   1.22486  -0.03392
O    -1.21467   2.44284   0.21968
C     0.04709   0.52401  -0.33701
C     0.45490  -0.77938  -0.24949
C    -0.29236  -1.99063   0.14051
C     0.51290  -3.16264   0.63021
O    -1.52044  -2.07823   0.05246
C     1.97133  -0.77122  -0.43622
C     2.56011  -0.12342   0.85926
C     2.08169   1.34952   0.75320
C     1.28516   1.36048  -0.59471
C     2.12437   0.38591  -1.43898
H    -3.68205   1.46801   1.29187
H    -3.84295   1.98956  -0.39997
H    -4.44210   0.37963   0.09366
H    -2.28648  -0.50417  -0.17729
H     1.09370  -3.58361  -0.20724
H     1.23775  -2.85048   1.39759
H    -0.15915  -3.93343   1.02841
H     2.41906  -1.73379  -0.70549
H     2.20264  -0.63117   1.76594
H     3.65765  -0.19340   0.84305
H     1.44886   1.66698   1.59339
H     2.92948   2.04679   0.68414
H     1.08639   2.36130  -0.99193
H     1.67620   0.16809  -2.41973
H     3.16714   0.71214  -1.56860
