44
Generated by autodE on: 2022-05-30. E = -1033.796277 Ha. Imaginary frequency = -232.1 cm-1
C    -2.18272   2.98184   1.32041
N    -1.42082   1.81040   0.94676
C    -2.02614   0.64496   0.67859
O    -3.26740   0.52440   0.69584
C    -1.17919  -0.53369   0.29816
C    -1.12434   0.12108  -1.85433
C    -2.42796   0.30276  -2.49308
N     0.05344   0.11971  -2.08877
C     1.30588  -0.08259  -1.73817
C     2.12126   1.07191  -1.39636
O     1.72239   2.22546  -1.33618
O     3.37965   0.70640  -1.08613
C     4.22975   1.73551  -0.56771
C     0.16086  -0.85014   0.60836
C     1.22033  -0.04652   1.20264
C     2.47567  -0.76942   1.63424
O     1.15442   1.18473   1.38958
C     0.25143  -2.37786   0.56601
C    -0.48419  -2.87054   1.85180
C    -1.96763  -2.50361   1.55609
C    -1.89308  -1.87805   0.12964
C    -0.78846  -2.73408  -0.50797
H    -1.49174   3.81929   1.48083
H    -2.76004   2.81914   2.24637
H    -2.89773   3.26253   0.53034
H    -0.39307   1.79466   1.03294
H    -3.17642   0.63920  -1.76362
H    -2.35697   1.00813  -3.33480
H    -2.74827  -0.68025  -2.87660
H     1.75581  -1.05677  -1.93602
H     4.40901   2.51154  -1.32668
H     3.77645   2.19456   0.32240
H     5.17326   1.24428  -0.30236
H     2.23749  -1.51474   2.40997
H     2.93142  -1.30926   0.79233
H     3.19362  -0.04338   2.03629
H     1.25800  -2.78804   0.43485
H    -0.09234  -2.38597   2.75739
H    -0.35422  -3.95727   1.96773
H    -2.39440  -1.79915   2.28376
H    -2.60835  -3.39784   1.53965
H    -2.85708  -1.81671  -0.38601
H    -1.03473  -3.80616  -0.52125
H    -0.50560  -2.41976  -1.52170
