57
Generated by autodE on: 2022-06-24. E = -1437.316968 Ha
C    -1.29885  -0.27860   3.04841
O    -0.91682   0.73066   2.12264
C    -0.79116   0.40487   0.75820
C    -2.18218   0.08264   0.17225
O    -2.84335   0.96226  -0.35970
C    -2.70327  -1.29130   0.32697
C    -4.18784  -1.46291   0.19407
C    -1.83245  -2.33243   0.44592
C    -2.26084  -3.76327   0.45847
C    -0.35430  -2.13480   0.45652
O     0.38888  -3.10386   0.49479
C     0.23379  -0.72474   0.44448
O     1.26283  -0.51462   1.38326
C     2.16270  -1.52084   1.83553
C     0.74776  -0.24105  -0.99123
C    -0.11993  -0.72928  -2.17505
C    -0.25941   0.19194  -3.34764
O    -0.64306  -1.82818  -2.14563
C     2.18006  -0.70206  -1.24801
C     2.45913  -1.98093  -1.75239
C     3.78137  -2.41045  -1.89238
C     4.83757  -1.56896  -1.53251
C     4.56371  -0.29053  -1.03616
C     3.24343   0.14166  -0.89843
N     0.65886   1.21639  -0.91441
C    -0.14953   1.58092   0.01060
C    -0.40730   3.00228   0.30890
C     0.46648   3.97464  -0.21670
C     0.25152   5.32926   0.02578
C    -0.84303   5.73892   0.79661
C    -1.71632   4.78312   1.32294
C    -1.50137   3.42409   1.08681
H    -1.17218   0.16648   4.04475
H    -2.35121  -0.58085   2.92582
H    -0.65604  -1.17078   2.98170
H    -4.70195  -0.49835   0.28493
H    -4.57780  -2.14977   0.95876
H    -4.44207  -1.89040  -0.79062
H    -1.72963  -4.31760   1.24646
H    -1.97996  -4.23546  -0.49890
H    -3.34120  -3.87795   0.59727
H     2.91044  -0.98033   2.43364
H     2.67171  -2.04220   1.01508
H     1.66082  -2.25827   2.48037
H     0.70144   0.66140  -3.60066
H    -0.95424   1.00214  -3.07173
H    -0.66702  -0.36077  -4.20380
H     1.64659  -2.65486  -2.02246
H     3.98431  -3.41001  -2.28361
H     5.87083  -1.90714  -1.64023
H     5.38272   0.37427  -0.75166
H     3.03174   1.13496  -0.50320
H     1.31870   3.65102  -0.81500
H     0.94080   6.07024  -0.38551
H    -1.01230   6.80119   0.98796
H    -2.57298   5.09589   1.92417
H    -2.18883   2.69225   1.50369
