31
Generated by autodE on: 2022-06-24. E = -747.807786 Ha
C    -0.26802  -2.67910  -1.69529
C    -1.47675  -1.87198  -1.25127
O    -2.61853  -2.25980  -1.55859
C    -1.22611  -0.67455  -0.48157
N     0.07253  -0.40366  -0.24702
C     1.20283  -0.18522  -0.05643
C     2.57829   0.05084   0.15368
C     3.52167  -0.86732  -0.36039
C     4.87811  -0.63345  -0.15364
C     5.30407   0.49631   0.55554
C     4.36535   1.40262   1.06305
C     3.00285   1.19218   0.86910
C    -2.20865   0.26880   0.06797
C    -1.78483   1.39105   0.81842
C    -2.70400   2.29702   1.34627
C    -4.07703   2.11771   1.14627
C    -4.51136   1.01286   0.40729
C    -3.59934   0.10025  -0.12527
H     0.40372  -2.07907  -2.33029
H     0.32353  -3.02364  -0.83165
H    -0.61764  -3.55063  -2.26330
H     3.17784  -1.74446  -0.91090
H     5.61029  -1.34023  -0.54965
H     6.37046   0.67091   0.71296
H     4.69786   2.28365   1.61589
H     2.26420   1.89328   1.26022
H    -0.72098   1.56068   0.99481
H    -2.34057   3.15278   1.92105
H    -4.79615   2.82822   1.56021
H    -5.58000   0.85423   0.23951
H    -3.94911  -0.75499  -0.69737
