26
Generated by autodE on: 2022-06-24. E = -689.460867 Ha
C    -2.29307   2.19678  -0.68758
O    -1.85238   0.91740  -1.15522
C    -0.75715   0.39837  -0.52570
C    -0.82200  -0.66062   0.32981
O    -1.88732  -1.34414   0.74670
C    -3.22420  -1.00161   0.36683
C     0.44249  -1.21562   0.93006
O     0.36338  -2.16615   1.69607
C     1.74820  -0.59378   0.59141
C     2.97712  -1.17040   1.22369
C     1.80058   0.45991  -0.26071
C     3.09277   1.11737  -0.62923
C     0.55014   0.98976  -0.88348
O     0.59523   1.90819  -1.70024
H    -3.17546   2.46177  -1.28503
H    -1.51575   2.96312  -0.82439
H    -2.57495   2.14483   0.37725
H    -3.86443  -1.73455   0.87397
H    -3.35900  -1.07772  -0.71971
H    -3.48370   0.01031   0.70925
H     3.50777  -0.40493   1.81355
H     3.68414  -1.52005   0.45337
H     2.72791  -2.01179   1.88087
H     2.93193   1.94392  -1.33101
H     3.78206   0.38979  -1.08907
H     3.60122   1.50539   0.26893
