57
Generated by autodE on: 2022-06-24. E = -1437.274136 Ha. Imaginary frequency = -413.6 cm-1
C    -0.06931   0.93814   3.50295
O     0.05288   1.26624   2.11648
C    -0.45511   0.32127   1.24997
C    -1.94183   0.27511   1.12436
O    -2.62179   1.17719   1.61028
C    -2.54155  -0.85514   0.38380
C    -3.99803  -0.76709   0.04012
C    -1.79306  -1.95591   0.10023
C    -2.39854  -3.14599  -0.57595
C    -0.33747  -2.05232   0.46013
O     0.27819  -3.11817   0.28869
C     0.27218  -0.88333   1.07766
O     1.52718  -0.84463   1.54090
C     2.27486  -2.00895   1.91055
C     0.71105  -0.49168  -1.64913
C    -0.23908  -1.27541  -2.47921
C    -1.46136  -0.55329  -2.98930
O    -0.04985  -2.46263  -2.73579
C     2.11068  -0.83771  -1.41706
C     2.63987  -2.10228  -1.76618
C     3.96673  -2.41667  -1.47774
C     4.79988  -1.48996  -0.84284
C     4.29181  -0.23250  -0.50009
C     2.96719   0.09118  -0.78036
N     0.29800   0.75573  -1.35905
C    -0.20178   1.42899  -0.47956
C    -0.63625   2.79843  -0.29940
C     0.21987   3.74440   0.29017
C    -0.22777   5.05257   0.46747
C    -1.52094   5.41565   0.07316
C    -2.37343   4.46787  -0.50232
C    -1.94109   3.15431  -0.68469
H    -1.12601   0.82049   3.79011
H     0.48234   0.01552   3.74417
H     0.36614   1.77727   4.06178
H    -4.58387  -1.52527   0.58712
H    -4.39990   0.22271   0.28951
H    -4.15853  -0.95799  -1.03297
H    -3.20792  -3.57071   0.04146
H    -1.64837  -3.92289  -0.75758
H    -2.85616  -2.85662  -1.53545
H     1.67433  -2.66686   2.55441
H     2.62334  -2.56168   1.03214
H     3.13518  -1.62745   2.47547
H    -1.16480   0.29095  -3.63139
H    -2.04966  -0.13621  -2.15843
H    -2.07873  -1.25564  -3.56242
H     1.99893  -2.83224  -2.25007
H     4.35288  -3.40153  -1.75083
H     5.83878  -1.74364  -0.62014
H     4.93215   0.50331  -0.00836
H     2.59267   1.07849  -0.50809
H     1.22245   3.44774   0.60050
H     0.43634   5.79360   0.91743
H    -1.86610   6.44181   0.21788
H    -3.38300   4.75059  -0.80791
H    -2.59891   2.40354  -1.12569
