49
Generated by autodE on: 2022-06-07. E = -3958.720629 Ha
C     2.26455  -2.56277  -2.39991
N     1.28679  -1.86699  -1.58838
C     1.02769  -2.25400  -0.33618
O     1.53966  -3.23999   0.19454
C    -0.01361  -1.40051   0.44463
Br   -1.78987  -2.12362  -0.27045
C    -0.05269  -1.77340   1.94066
C     1.15519  -1.45515   2.84044
C     1.37625   0.02221   3.22248
C     2.50674   0.75169   2.49214
C     2.42827   0.67131   0.98231
F     3.32625   1.54327   0.41559
F     2.84634  -0.57583   0.56917
C     1.06178   0.94850   0.41416
C     0.04627   0.08481   0.16840
C    -1.11163   0.92412  -0.35447
C    -2.29619   0.92228   0.68799
C    -3.71486   1.09049   0.24808
O    -1.98525   0.86763   1.85859
C    -1.38733   0.62785  -1.84117
O    -0.56035   0.10957  -2.56508
O    -2.54082   1.09537  -2.26455
C    -2.83698   0.94888  -3.66794
N    -0.63975   2.31811  -0.36832
C     0.56630   2.30183   0.08797
C     1.29547   3.60560   0.32264
C     1.24677   4.61303  -0.77925
O     1.85325   3.78519   1.38946
H     3.26385  -2.51622  -1.93747
H     1.99871  -3.62418  -2.52958
H     2.30865  -2.08570  -3.38667
H     0.77496  -1.07594  -1.98382
H    -0.94587  -1.30377   2.37273
H    -0.20630  -2.85990   1.96710
H     0.95138  -2.01701   3.76494
H     2.07016  -1.89563   2.42154
H     1.61261   0.08100   4.29534
H     0.43732   0.58257   3.09078
H     3.49280   0.34587   2.77086
H     2.48987   1.81788   2.75404
H    -4.01721   0.29448  -0.44495
H    -3.81865   2.04226  -0.29386
H    -4.35446   1.08752   1.13971
H    -3.83385   1.38089  -3.80561
H    -2.09223   1.49165  -4.26589
H    -2.83418  -0.11494  -3.94190
H     1.75409   4.19327  -1.66456
H     1.73675   5.54362  -0.46608
H     0.20189   4.79998  -1.07058
