27
Generated by autodE on: 2022-06-07. E = -3292.424905 Ha
C    -0.07528   4.58155   0.24816
N     0.36285   3.22157  -0.00882
C    -0.44306   2.17454   0.21016
O    -1.58186   2.27631   0.66698
C     0.13557   0.78589  -0.11943
Br    0.10450   0.64030  -2.14569
C    -0.68692  -0.28950   0.38733
C    -0.99849  -1.33837   0.87018
C    -0.68587  -2.61991   1.51068
F    -1.52272  -3.62227   1.10093
F    -0.87890  -2.50916   2.86799
C     0.76250  -2.99460   1.21833
C     1.79541  -1.87869   1.46476
C     2.10412  -0.89793   0.29915
C     1.57269   0.54484   0.39712
H    -0.89774   4.87170  -0.42549
H    -0.42888   4.68717   1.28466
H     0.77048   5.26083   0.08895
H     1.27803   3.07464  -0.41989
H     0.80229  -3.33581   0.17244
H     0.97863  -3.86424   1.85921
H     2.73625  -2.39049   1.71414
H     1.51834  -1.31888   2.37364
H     3.19811  -0.80454   0.23565
H     1.79368  -1.33989  -0.66203
H     2.25275   1.22235  -0.14079
H     1.57238   0.87051   1.45128
