49
Generated by autodE on: 2022-06-07. E = -3958.604406 Ha. Imaginary frequency = -360.2 cm-1
C     1.65791  -2.56771  -2.69562
N     1.12847  -1.87091  -1.53811
C     0.72899  -2.53751  -0.44648
O     0.88508  -3.74810  -0.29621
C     0.02522  -1.70089   0.65353
Br   -1.97002  -1.95122   0.19625
C     0.20431  -2.32223   2.04780
C     1.64583  -2.36237   2.57926
C     2.25628  -1.08152   3.18062
C     3.06646  -0.17013   2.24406
C     2.32639   1.02610   1.68140
F     1.94451   1.87483   2.69206
F     3.20726   1.76278   0.91615
C     1.12942   0.66104   0.88023
C     0.39328  -0.31031   0.63752
C    -1.48717   1.53345  -0.94618
C    -2.83911   1.68273  -0.33118
C    -4.03636   1.01630  -0.94299
O    -2.93455   2.38418   0.66945
C    -1.06546   0.76214  -2.14259
O     0.08747   0.74861  -2.55316
O    -2.05605   0.09000  -2.70867
C    -1.72527  -0.75986  -3.81878
N    -0.54141   2.29052  -0.44540
C     0.53931   2.45462   0.05337
C     1.50730   3.60431  -0.00362
C     2.35102   3.62597  -1.23778
O     1.51269   4.41796   0.89149
H     1.82629  -1.83567  -3.49454
H     2.61147  -3.06506  -2.45947
H     0.95253  -3.33410  -3.05427
H     0.91468  -0.88084  -1.64551
H    -0.44219  -1.77932   2.75250
H    -0.16892  -3.35256   1.97745
H     1.62816  -3.11718   3.38100
H     2.31863  -2.76989   1.80697
H     2.95166  -1.40409   3.96950
H     1.48003  -0.49325   3.69776
H     3.46323  -0.73705   1.38817
H     3.92676   0.25929   2.78051
H    -4.91031   1.22556  -0.31310
H    -3.88658  -0.06584  -1.04372
H    -4.20128   1.40941  -1.95834
H    -1.25376  -0.17640  -4.62134
H    -1.04650  -1.56008  -3.49370
H    -2.67582  -1.18412  -4.16009
H     2.62075   2.60794  -1.55059
H     3.24456   4.24089  -1.06563
H     1.74566   4.07459  -2.04459
