24
Generated by autodE on: 2022-06-14. E = -721.632222 Ha
C     4.28603   1.04641   0.18958
N     2.84031   1.05868   0.26308
C     2.11075  -0.02254  -0.08695
O     2.62959  -1.07942  -0.48029
C     0.65935   0.16322   0.03634
C    -0.02130   1.33763   0.45752
O     0.33479   2.44784   0.82155
O    -1.38863   0.99972   0.38934
C    -1.50941  -0.26795  -0.03395
C    -2.85484  -0.85235  -0.18607
C    -3.99227   0.06530   0.15976
O    -3.01802  -2.00419  -0.56900
N    -0.30171  -0.78482  -0.24904
C    -0.02770  -2.15036  -0.71398
H     4.63640   0.86564  -0.83965
H     4.71510   0.26064   0.83205
H     4.66521   2.01964   0.52402
H     2.35058   1.89625   0.57183
H    -3.90626   0.40232   1.20507
H    -3.96233   0.96547  -0.47472
H    -4.93916  -0.46820   0.01215
H    -0.98047  -2.66910  -0.82757
H     0.50661  -2.09525  -1.66889
H     0.60995  -2.64959   0.02345
