31
Generated by autodE on: 2022-06-14. E = -5782.751390 Ha
N    -2.58028  -2.93240   1.67953
C    -1.87131  -2.01893   1.77015
C    -0.93613  -0.88272   1.88582
C    -1.40219   0.09079   2.97481
C    -1.97016  -0.39423   4.15941
C    -2.32451   0.49015   5.18127
C    -2.11226   1.86356   5.02746
C    -1.54301   2.34839   3.84628
C    -1.18851   1.46576   2.82256
C    -0.78304  -0.28951   0.55445
C    -0.29275  -0.06449  -0.52999
C     0.69497  -0.14649  -1.56948
Br    1.81493   1.50950  -1.51768
Br   -0.14644  -0.25796  -3.36804
C     1.57111  -1.38809  -1.32567
C     2.09897  -1.55818   0.11390
C     1.19898  -2.28185   1.15445
C     0.50099  -1.43794   2.23759
H    -2.14019  -1.46575   4.28701
H    -2.77011   0.10242   6.10015
H    -2.39203   2.55456   5.82591
H    -1.37506   3.42004   3.71683
H    -0.74268   1.84845   1.90212
H     2.40845  -1.35053  -2.03734
H     0.95770  -2.26302  -1.59387
H     2.42751  -0.58282   0.50872
H     3.01738  -2.15518   0.01160
H     0.46050  -2.92059   0.64044
H     1.84954  -2.97912   1.70340
H     0.38235  -2.02551   3.16011
H     1.10912  -0.55608   2.48801
