55
Generated by autodE on: 2022-06-14. E = -6504.367534 Ha. Imaginary frequency = -303.5 cm-1
C   -22.20208  -6.20757  -2.50114
N   -20.95065  -5.55096  -2.81326
C   -20.08416  -5.20651  -1.84420
O   -20.34532  -5.30019  -0.64135
C   -18.78804  -4.66512  -2.34977
C   -18.68341  -3.90516  -3.59254
O   -19.39267  -3.83081  -4.57053
O   -17.49814  -3.19897  -3.48446
C   -16.84455  -3.65163  -2.36539
C   -15.71298  -2.84176  -1.80793
C   -15.55978  -1.45346  -2.34039
O   -15.03247  -3.31445  -0.91382
C   -16.19849  -5.52359  -3.35411
C   -17.23404  -6.22983  -3.30824
C   -17.74974  -7.57585  -3.47425
Br  -18.95283  -7.63192  -5.06402
Br  -18.82653  -8.16716  -1.88139
C   -16.61679  -8.59408  -3.64986
C   -15.55583  -8.56179  -2.52282
C   -14.18143  -7.95772  -2.86245
C   -13.95926  -6.43893  -2.81997
C   -14.77007  -5.57139  -3.83242
C   -14.77696  -6.26701  -5.13919
N   -14.76227  -6.81124  -6.16403
C   -14.15186  -4.18666  -4.12247
C   -13.08018  -3.66995  -3.38655
C   -12.52050  -2.43457  -3.72962
C   -13.01841  -1.70850  -4.81299
C   -14.09698  -2.21484  -5.54601
C   -14.66111  -3.44234  -5.19906
N   -17.75744  -4.24292  -1.54941
C   -17.41094  -4.86393  -0.27127
H   -22.80515  -5.60226  -1.80776
H   -22.02633  -7.19052  -2.03241
H   -22.76663  -6.35390  -3.42987
H   -20.66638  -5.44585  -3.78309
H   -14.66783  -0.98733  -1.90639
H   -15.50318  -1.45388  -3.43709
H   -16.46035  -0.87793  -2.06451
H   -16.15120  -8.39557  -4.62556
H   -17.07583  -9.58964  -3.72119
H   -15.37428  -9.60701  -2.23215
H   -15.96706  -8.07629  -1.62398
H   -13.85302  -8.34207  -3.84259
H   -13.46453  -8.36846  -2.13385
H   -14.17057  -6.03512  -1.81856
H   -12.89315  -6.26847  -3.02418
H   -12.67641  -4.21408  -2.53410
H   -11.68717  -2.04244  -3.14248
H   -12.57369  -0.74774  -5.08182
H   -14.50248  -1.65197  -6.38955
H   -15.50458  -3.83000  -5.77478
H   -16.89102  -4.13777   0.36063
H   -16.75170  -5.72473  -0.45798
H   -18.33840  -5.19196   0.20133
