12
Generated by autodE on: 2022-06-19. E = -381.636092 Ha
O     0.19081  -2.63002  -0.39632
C     0.10303  -1.42007  -0.21430
C     1.26656  -0.52538  -0.42701
C     1.17011   0.80068  -0.22777
C    -0.10318   1.42014   0.21376
O    -0.19073   2.62999   0.39659
C    -1.26654   0.52537   0.42707
C    -1.17009  -0.80069   0.22783
H     2.19363  -1.00429  -0.75085
H     2.01305   1.47939  -0.37757
H    -2.19352   1.00424   0.75125
H    -2.01293  -1.47945   0.37797
