37
Generated by autodE on: 2022-06-19. E = -1083.360701 Ha. Imaginary frequency = -310.9 cm-1
C    -2.23411   3.72051  -0.63409
N    -1.36439   2.72951  -0.02806
C    -1.81487   1.50072   0.26811
O    -2.99852   1.16695   0.09741
C    -0.81622   0.52003   0.80008
C    -1.17146  -0.71071   1.58116
O    -0.27808  -1.38513   2.10867
N    -2.47253  -1.03116   1.60102
C    -2.92196  -2.31278   2.10252
N     0.45743   0.85871   0.83480
C     1.49438   0.88764   0.21740
C     2.84062   1.50530   0.34832
C     3.84162   0.73254   1.13901
O     3.03335   2.55276  -0.23778
C     1.01694  -0.03724  -1.66598
C     2.04354  -1.10007  -1.48622
O     3.22411  -0.91026  -1.76937
C     1.58346  -2.38953  -0.92602
C     0.27362  -2.65703  -0.77829
C    -0.77724  -1.68958  -1.19439
O    -1.96354  -2.03293  -1.20728
C    -0.33568  -0.35347  -1.58581
H    -2.57627   3.39648  -1.63000
H    -1.67792   4.65954  -0.73650
H    -3.12242   3.89717  -0.00898
H    -0.38830   2.96356   0.11774
H    -3.08420  -0.44788   1.02351
H    -2.49715  -2.51001   3.09698
H    -2.61998  -3.13306   1.42961
H    -4.01644  -2.30308   2.17788
H     4.73760   1.34549   1.30379
H     3.40519   0.39805   2.09281
H     4.10764  -0.17053   0.56280
H     1.34593   0.84684  -2.21903
H     2.36075  -3.11359  -0.67053
H    -0.08123  -3.61340  -0.38715
H    -1.09708   0.31506  -1.98807
