31
Generated by autodE on: 2022-07-27. E = -651.935349 Ha
C    -1.83819   2.14984  -0.51059
N    -1.58705   0.77018  -0.15959
C    -1.71016  -0.26520  -1.04740
O    -2.25547  -0.09316  -2.17718
C    -1.26954  -1.58241  -0.63985
C    -1.77307  -2.77169  -1.40401
N    -0.50080  -1.84851   0.44953
C     0.39483  -1.18670   1.18575
C     0.72503  -1.80829   2.51354
C     1.08029   0.01680   0.74724
C     1.73814   0.83522   1.69872
C     2.45296   1.96615   1.30657
C     2.55200   2.31004  -0.04629
C     1.92684   1.49974  -1.00310
C     1.19061   0.38327  -0.61637
H    -2.79497   2.52303  -0.10404
H    -1.03018   2.79246  -0.12808
H    -1.87772   2.24266  -1.60329
H    -1.15659   0.59383   0.74083
H    -1.75202  -3.67789  -0.77410
H    -1.16071  -2.99513  -2.29846
H    -2.80431  -2.61702  -1.75457
H    -0.64104  -2.80482   0.78936
H     1.80922  -1.80972   2.70363
H     0.35946  -2.84640   2.55739
H     0.24930  -1.26691   3.35091
H     1.67568   0.59150   2.75945
H     2.93561   2.58577   2.06635
H     3.10798   3.19898  -0.35266
H     2.00446   1.74734  -2.06464
H     0.71351  -0.22561  -1.38534
