31
Generated by autodE on: 2022-06-23. E = -651.948391 Ha
C     5.01855  -0.47067  -0.08352
N     3.93855   0.48481  -0.20129
C     2.63642   0.09098  -0.15347
O     2.34945  -1.13725  -0.09204
C     1.59714   1.10375  -0.18754
C     1.84384   2.57192  -0.32775
N     0.37107   0.53247  -0.06444
C    -0.90034   0.91161   0.01582
C    -1.31419   2.35145  -0.02163
C    -1.91110  -0.14349   0.11761
C    -1.59368  -1.47349   0.49245
C    -2.57683  -2.45696   0.56716
C    -3.91428  -2.15428   0.28089
C    -4.24937  -0.84593  -0.07999
C    -3.26879   0.14375  -0.15931
H     4.91157  -1.27713  -0.82453
H     5.97116   0.04395  -0.26407
H     5.06039  -0.94047   0.91553
H     4.15884   1.46665  -0.09256
H     2.84032   2.75346  -0.75419
H     1.12532   3.04059  -1.01610
H     1.79371   3.12385   0.62860
H     0.52823  -0.48823  -0.04538
H    -2.20591   2.50603   0.60211
H    -1.57217   2.68494  -1.04287
H    -0.52848   3.01333   0.35624
H    -0.57024  -1.74917   0.75892
H    -2.29682  -3.47042   0.86523
H    -4.68314  -2.92745   0.34464
H    -5.28705  -0.58984  -0.30845
H    -3.56020   1.15074  -0.45946
