54
Generated by autodE on: 2022-06-23. E = -1003.435723 Ha. Imaginary frequency = -344.8 cm-1
C     4.96731  -0.34387   1.30814
C     3.95300  -0.14364   0.43404
C     4.00516   0.98986  -0.56061
C     2.77484  -1.00350   0.44639
C     1.70340  -0.88409  -0.38689
C     0.51499  -1.69056  -0.33018
C    -0.67391  -0.46846   1.40151
C    -0.23461  -1.18525   2.64922
C    -0.09543   0.87165   1.16028
C     0.61858   1.49742   2.20636
C     1.23026   2.74268   2.03764
C     1.16084   3.40492   0.81174
C     0.48546   2.78932  -0.24901
C    -0.12308   1.54957  -0.07860
N    -1.85439  -0.93046   0.90318
C    -2.37215  -0.90608  -0.38299
C    -3.49310  -1.90192  -0.59873
C    -2.75596   0.40126  -0.99517
O    -2.95183   0.52409  -2.21601
N    -3.01106   1.42125  -0.14305
C    -3.27700   2.76063  -0.62616
C    -0.44463  -1.80395  -1.36600
C    -0.27278  -1.03599  -2.65732
C    -0.99844  -3.19628  -1.58175
H     5.85072   0.30067   1.31607
H     4.93196  -1.15725   2.03998
H     3.91772   0.61878  -1.59531
H     3.16726   1.68856  -0.40424
H     4.94556   1.55282  -0.47534
H     2.76537  -1.79761   1.20267
H     1.73029  -0.09983  -1.14643
H     0.54112  -2.51113   0.39343
H     0.86378  -1.23615   2.69055
H    -0.62511  -2.21321   2.65938
H    -0.57384  -0.68499   3.57264
H     0.69349   1.01754   3.18072
H     1.76489   3.19325   2.87733
H     1.63905   4.37754   0.67604
H     0.44704   3.27008  -1.22922
H    -0.57316   1.08623  -0.94811
H    -2.11150  -1.79787   1.37164
H    -4.44164  -1.53509  -0.16484
H    -3.26577  -2.87640  -0.14565
H    -3.66217  -2.04915  -1.67321
H    -2.78004   1.29844   0.83578
H    -3.42704   3.42558   0.23339
H    -2.43845   3.14808  -1.22891
H    -4.18231   2.78256  -1.25185
H     0.47485  -1.54266  -3.29658
H    -1.21512  -0.99353  -3.21861
H     0.07131  -0.00398  -2.51257
H    -1.88543  -3.20877  -2.23024
H    -1.24805  -3.69486  -0.63340
H    -0.23021  -3.81605  -2.08184
