29
Generated by autodE on: 2022-06-17. E = -857.248693 Ha
C     3.69809   1.77984  -0.92220
O     3.08310   0.54806  -0.51359
C     1.95551   0.65715   0.18865
O     1.43343   1.70373   0.51739
N     1.49009  -0.60608   0.56215
C     1.45928  -1.71542  -0.39557
C     0.07064  -1.59243  -1.03897
C    -0.72985  -0.78192   0.00857
C    -1.93056  -1.58784   0.52192
C    -1.68700  -2.51829   1.66576
O    -2.99996  -1.46100  -0.04354
C    -1.21339   0.57867  -0.52355
O    -1.11293   0.95283  -1.67053
O    -1.73758   1.29894   0.46061
C    -2.13910   2.64032   0.13909
O     0.19034  -0.54617   1.09813
H     3.97331   2.38050  -0.04374
H     4.59523   1.49355  -1.48265
H     3.01512   2.35407  -1.56432
H     1.56893  -2.65792   0.15608
H     2.28107  -1.61629  -1.11080
H    -0.37905  -2.57421  -1.23341
H     0.10265  -1.02810  -1.97831
H    -2.57120  -3.14679   1.83090
H    -1.47262  -1.92294   2.56824
H    -0.79596  -3.13720   1.47653
H    -2.55601   3.05963   1.06157
H    -1.26472   3.22320  -0.18458
H    -2.89747   2.63467  -0.65641
