23
Generated by autodE on: 2022-06-17. E = -778.499649 Ha
C     2.86858   0.88875  -0.12675
O     1.73254   0.16048   0.36338
C     1.24354   0.51149   1.56019
O     1.74833   1.34937   2.28757
N     0.18085  -0.25120   2.00681
O    -0.50193  -0.96073   1.07648
C    -0.76852  -0.77033  -0.15865
C    -1.64166  -1.82846  -0.77177
C    -1.96490  -3.02264   0.06953
O    -2.04180  -1.65450  -1.90881
C    -0.37250   0.43715  -0.96716
O     0.05392   0.36203  -2.09364
O    -0.63072   1.54591  -0.29301
C    -0.28314   2.79488  -0.92667
H     3.76122   0.63516   0.46272
H     2.99668   0.57522  -1.16888
H     2.68187   1.96979  -0.07232
H    -1.03796  -3.54766   0.35066
H    -2.62354  -3.69195  -0.49695
H    -2.45430  -2.70703   1.00456
H    -0.49545   3.57175  -0.18499
H    -0.89656   2.93935  -1.82661
H     0.78176   2.79371  -1.19441
