23
Generated by autodE on: 2022-07-27. E = -778.504788 Ha
C     3.85064   1.10906  -0.55593
O     3.13985  -0.13642  -0.54881
C     1.90900  -0.11322  -0.02808
O     1.37321   0.89660   0.42109
N     1.41886  -1.39639  -0.00211
O     0.14197  -1.47263   0.45084
C    -0.83433  -0.65703   0.32798
C    -2.11851  -1.12594   0.95809
C    -2.04642  -2.31245   1.86373
O    -3.13699  -0.51628   0.68683
C    -0.82282   0.51317  -0.61527
O    -0.44365   0.36596  -1.75686
O    -1.34648   1.59754  -0.09016
C    -1.38669   2.76741  -0.93291
H     4.02994   1.45779   0.47165
H     4.80454   0.90625  -1.05643
H     3.28566   1.87313  -1.10944
H    -3.05340  -2.55080   2.22693
H    -1.37524  -2.09777   2.71082
H    -1.62039  -3.17346   1.32450
H    -0.36475   3.04711  -1.22454
H    -1.99214   2.56718  -1.82744
H    -1.84419   3.55511  -0.32525
