44
Generated by autodE on: 2022-06-20. E = -1088.003808 Ha
C    -2.97081  -1.12498   2.94986
N    -2.03332  -0.55493   2.00792
C    -2.34962  -0.22945   0.74908
O    -3.47480  -0.34325   0.25556
C    -1.15642   0.33039  -0.07084
C    -1.40792   1.81666  -0.39404
O    -0.53428   2.65807  -0.31785
O    -2.64589   2.07896  -0.77194
C    -2.93674   3.43396  -1.15625
N     0.09788   0.26271   0.68902
N     0.92342  -0.68653   0.02786
C     2.16519  -0.96248   0.58023
C     3.15340  -1.63971  -0.16908
C     4.37834  -1.96363   0.41248
C     4.66151  -1.62293   1.74034
C     3.68880  -0.94310   2.47976
C     2.45719  -0.60753   1.91511
C     0.64892  -0.62131  -1.38926
C     1.38599   0.50668  -2.09415
O     2.08801   1.31058  -1.51997
C    -0.90769  -0.51973  -1.41435
C    -1.46466  -1.94651  -1.29400
C    -1.46637   0.12941  -2.68107
H    -3.99074  -0.99138   2.56832
H    -2.88427  -0.62346   3.92487
H    -2.79007  -2.20249   3.09747
H    -1.05175  -0.42496   2.25154
H    -2.74104   4.11775  -0.31880
H    -3.99953   3.44629  -1.42156
H    -2.32168   3.72125  -2.02078
H     0.54786   1.18314   0.62015
H     2.96623  -1.91256  -1.20806
H     5.12571  -2.48788  -0.18882
H     5.62529  -1.87654   2.18663
H     3.88879  -0.65991   3.51658
H     1.71295  -0.07343   2.50413
H     0.94647  -1.54789  -1.90356
H     1.27349   0.52832  -3.20274
H    -2.56008  -1.94194  -1.27173
H    -1.13675  -2.53230  -2.16513
H    -1.09842  -2.44533  -0.38592
H    -1.18033  -0.47031  -3.55822
H    -2.56273   0.16317  -2.63014
H    -1.10133   1.15454  -2.84201
