14
Generated by autodE on: 2022-06-20. E = -270.687342 Ha
C    -1.02420   1.49787   0.72506
C    -0.96486   0.15078   0.06906
C    -2.29996  -0.45912  -0.23316
C     0.17744  -0.51329  -0.24941
C     1.53018  -0.04050  -0.01322
O     2.53354  -0.67991  -0.32029
H    -1.59605   2.19182   0.08588
H    -1.58581   1.41982   1.67154
H    -0.04548   1.94370   0.93570
H    -2.88881  -0.56097   0.69490
H    -2.21172  -1.44474  -0.71044
H    -2.88074   0.20866  -0.89283
H     0.11029  -1.49608  -0.72815
H     1.64276   0.95459   0.47246
