30
Generated by autodE on: 2022-06-20. E = -817.294549 Ha
C    -4.71532  -0.83602   0.81278
N    -3.58660  -0.12019   0.25914
C    -2.31253  -0.50464   0.42133
O    -1.97088  -1.52167   1.06335
C    -1.25178   0.33397  -0.19923
N    -0.03253  -0.18270   0.06804
N     1.13139   0.19135  -0.28970
C     2.20431  -0.53913   0.23188
C     3.44065  -0.35092  -0.41654
C     4.57687  -1.03050   0.01741
C     4.50241  -1.89722   1.11363
C     3.28132  -2.07188   1.77652
C     2.13801  -1.39836   1.34987
C    -1.50534   1.54522  -0.96305
O    -2.63460   1.98630  -1.18084
O    -0.40734   2.15696  -1.41876
C    -0.60875   3.35770  -2.17530
H    -4.35805  -1.73495   1.32804
H    -5.41540  -1.13757   0.01772
H    -5.26513  -0.21043   1.53431
H    -3.73091   0.73244  -0.28272
H    -0.17159  -1.03738   0.65508
H     3.48137   0.32915  -1.26938
H     5.52698  -0.88124  -0.50059
H     5.39355  -2.42606   1.45856
H     3.22107  -2.73070   2.64587
H     1.20960  -1.52729   1.91028
H    -1.20581   3.15329  -3.07593
H     0.39271   3.70425  -2.45600
H    -1.11766   4.11957  -1.56704
