44
Generated by autodE on: 2022-06-20. E = -1087.957171 Ha. Imaginary frequency = -360.3 cm-1
C    -2.72895  -2.35513   1.99603
N    -1.80528  -1.46485   1.32277
C    -2.22389  -0.30829   0.79009
O    -3.40108   0.05941   0.84364
C    -1.15334   0.53808   0.08948
C    -1.49487   1.99679  -0.12133
O    -0.68891   2.88493   0.09706
O    -2.69170   2.20784  -0.63891
C    -3.02369   3.56722  -0.96988
N     0.13972   0.48603   0.61815
N     0.71471  -0.66755   0.76676
C     2.09343  -0.68243   1.00252
C     2.61132  -1.88679   1.51672
C     3.97380  -2.01130   1.76856
C     4.83640  -0.93857   1.50572
C     4.32790   0.25398   0.98074
C     2.96482   0.38679   0.71684
C     0.01241  -1.30786  -1.44197
C     1.40077  -1.31927  -1.77821
O     2.09906  -0.37664  -2.18805
C    -0.93413  -0.23459  -1.64962
C    -2.32600  -0.71930  -2.04498
C    -0.47025   0.93113  -2.51959
H    -3.17892  -1.87811   2.88179
H    -2.18440  -3.25214   2.31583
H    -3.54786  -2.65667   1.32370
H    -0.80868  -1.68261   1.25763
H    -2.99967   4.19556  -0.06884
H    -4.03676   3.53237  -1.38519
H    -2.31615   3.95950  -1.71397
H     0.68160   1.35195   0.49935
H     1.92221  -2.71021   1.71347
H     4.36812  -2.94552   2.17392
H     5.90599  -1.03524   1.70458
H     5.00036   1.08630   0.76215
H     2.59873   1.31557   0.27723
H    -0.39228  -2.27474  -1.13626
H     1.88074  -2.31484  -1.62212
H    -3.08002   0.06686  -1.91212
H    -2.30969  -0.99662  -3.11117
H    -2.63098  -1.60661  -1.47331
H    -1.29633   1.63186  -2.70255
H    -0.13723   0.54547  -3.49492
H     0.37474   1.47384  -2.08172
