51
Generated by autodE on: 2022-06-07. E = -2094.901811 Ha
C   -10.15086  -6.23702  -7.24223
N    -9.19299  -6.31292  -6.15707
C    -9.57357  -6.19904  -4.87551
O   -10.73464  -5.99800  -4.51647
C    -8.44180  -6.25049  -3.87714
N    -7.46102  -5.43021  -4.02005
C    -6.56516  -5.61374  -2.87338
C    -6.54836  -4.18633  -2.25954
C    -5.75489  -3.13828  -2.98851
O    -7.22650  -3.92477  -1.28765
C    -5.20282  -6.13420  -3.36346
C    -5.17282  -7.02503  -4.44744
C    -3.96490  -7.56680  -4.89123
C    -2.76661  -7.22325  -4.25895
C    -2.78968  -6.33749  -3.17872
C    -3.99902  -5.79988  -2.72932
C    -7.23929  -6.66122  -1.99152
C    -8.33934  -7.10293  -2.66066
C    -9.27647  -8.24230  -2.35145
Cl  -10.81672  -7.53498  -1.64626
Cl   -9.70706  -9.06662  -3.93483
C    -8.83239  -9.35143  -1.39809
C    -7.59323 -10.16220  -1.77500
C    -6.26426  -9.40418  -1.81410
C    -6.01764  -8.47150  -0.62488
C    -6.65649  -7.05204  -0.65134
C    -7.61757  -6.74208   0.49643
F    -5.57630  -6.15551  -0.41830
H   -10.60241  -5.23416  -7.31287
H   -10.96322  -6.96550  -7.09466
H    -9.63854  -6.46204  -8.18526
H    -8.20640  -6.43035  -6.36292
H    -4.78300  -3.01681  -2.48365
H    -5.56593  -3.40743  -4.03462
H    -6.28957  -2.18032  -2.92227
H    -6.10059  -7.30571  -4.94775
H    -3.96302  -8.26012  -5.73544
H    -1.82002  -7.64390  -4.60602
H    -1.86061  -6.06236  -2.67410
H    -3.99344  -5.13058  -1.87123
H    -9.69156 -10.03100  -1.31183
H    -8.70294  -8.91508  -0.40184
H    -7.52117 -10.95623  -1.01339
H    -7.75945 -10.67029  -2.73717
H    -5.45423 -10.15011  -1.82585
H    -6.16073  -8.84643  -2.75560
H    -6.30779  -8.97087   0.31307
H    -4.93829  -8.27787  -0.55673
H    -7.84417  -5.66847   0.48862
H    -7.13159  -7.00537   1.44733
H    -8.56511  -7.28600   0.42178
