23
Generated by autodE on: 2022-06-07. E = -1370.022679 Ha
C     2.31088  -0.71514  -2.49843
C     0.98538  -0.00175  -2.28379
F     0.90818   1.03549  -3.23239
C     0.85530   0.54167  -0.92970
C     0.50862   0.58000   0.23143
C    -0.26235   0.18773   1.38702
Cl    0.71413   0.26908   2.92259
Cl   -1.68171   1.32824   1.57178
C    -0.76686  -1.25024   1.17068
C    -1.44375  -1.51980  -0.18849
C    -0.55186  -1.94154  -1.39026
C    -0.25241  -0.90287  -2.49129
H     3.14818  -0.02054  -2.33993
H     2.41336  -1.55779  -1.80025
H     2.34815  -1.09904  -3.52867
H    -1.45907  -1.47159   1.99648
H     0.10718  -1.90928   1.29058
H    -2.07466  -0.65872  -0.46354
H    -2.14438  -2.34732  -0.00178
H     0.39020  -2.37994  -1.02037
H    -1.07466  -2.76748  -1.89526
H    -0.10208  -1.41785  -3.45355
H    -1.11643  -0.23041  -2.61392
