28
Generated by autodE on: 2022-06-07. E = -724.752194 Ha
C     3.76060  -1.09564   1.85444
N     2.98684  -0.17321   2.66937
C     1.99918   0.61520   2.22410
O     1.36116   1.43048   2.89491
C     1.68926   0.50952   0.78460
N     0.82916   0.05603   0.09607
C    -0.05735  -0.44694  -0.72182
C     0.33316  -1.75068  -1.29747
C    -0.66367  -2.53948  -2.10476
O     1.46241  -2.20145  -1.08799
C    -1.32289   0.30068  -0.88458
C    -2.06182   0.28417  -2.08288
C    -3.24214   1.02167  -2.19869
C    -3.70215   1.79944  -1.13234
C    -2.96463   1.84050   0.05589
C    -1.79037   1.09936   0.18088
H     3.16112  -1.45845   1.00800
H     4.67827  -0.62751   1.46327
H     4.04195  -1.96566   2.46226
H     3.23785  -0.05055   3.64824
H    -0.65238  -2.19245  -3.15112
H    -1.68966  -2.43360  -1.72701
H    -0.35954  -3.59476  -2.09317
H    -1.70536  -0.28273  -2.94159
H    -3.79958   0.99561  -3.13799
H    -4.62597   2.37448  -1.22779
H    -3.30944   2.44881   0.89541
H    -1.22491   1.13693   1.11498
