48
Generated by autodE on: 2022-06-22. E = -1338.665880 Ha
C     3.52722  -2.56248  -1.67132
O     2.97186  -1.89440  -0.52893
C     2.36566  -0.73179  -0.75371
O     2.38176  -0.14233  -1.81302
C     1.71661  -0.18339   0.51440
O     1.72272   1.23458   0.46440
C     0.39882   1.74261   0.28805
C     0.34722   3.16885   0.80369
C     0.06761   1.70716  -1.21408
O    -0.79397   1.00665  -1.70810
O     0.84665   2.52109  -1.90629
C     0.71386   2.48728  -3.33780
C    -0.47002   0.72657   1.09313
O    -0.28048   1.05665   2.44915
C    -1.25642   0.64514   3.40407
C    -1.96625   0.76854   0.73640
O    -2.57546   1.81028   0.92891
C    -2.65720  -0.45944   0.27805
C    -4.15336  -0.43746   0.26876
C    -1.94503  -1.50224  -0.22837
C    -2.59860  -2.70114  -0.84035
C    -0.46871  -1.40021  -0.33735
O     0.15246  -2.01614  -1.18604
C     0.23937  -0.63132   0.78972
O     0.12964  -1.44419   1.93824
C     0.70206  -2.74777   1.87966
H     2.73168  -2.78721  -2.39651
H     3.97136  -3.49024  -1.29357
H     4.29568  -1.93751  -2.14767
H     2.32378  -0.49720   1.37411
H     1.06104   3.78264   0.23926
H    -0.66284   3.57952   0.67499
H     0.61254   3.18352   1.86632
H    -0.30909   2.75854  -3.63338
H     1.43107   3.22034  -3.72300
H     0.95523   1.48162  -3.70941
H    -1.66592  -0.34921   3.17852
H    -2.08091   1.37372   3.46317
H    -0.74372   0.60296   4.37496
H    -4.56343  -1.39830   0.61279
H    -4.54288   0.37137   0.89889
H    -4.52723  -0.27777  -0.75787
H    -3.18001  -2.41188  -1.73240
H    -3.30930  -3.15812  -0.13401
H    -1.85677  -3.45076  -1.14127
H     0.60191  -3.16643   2.88961
H     0.17327  -3.40412   1.16873
H     1.76826  -2.71435   1.60705
