22
Generated by autodE on: 2022-07-27. E = -649.116279 Ha
C     1.03538  -3.61198  -0.97063
O     1.65041  -2.51456  -0.29210
C     0.82839  -1.50242   0.07857
O    -0.37360  -1.49556  -0.17617
C     1.53675  -0.53038   0.85825
O     0.92899   0.51319   1.41171
C    -0.12611   1.19622   1.07341
C    -0.64938   2.12833   2.10638
C    -0.58691   1.23982  -0.32078
O     0.07619   0.90960  -1.28905
O    -1.79571   1.81219  -0.40672
C    -2.30387   2.03612  -1.72929
H     0.29897  -4.11222  -0.32305
H     1.84529  -4.30803  -1.22033
H     0.53340  -3.27383  -1.88975
H     2.47903  -0.77161   1.34700
H    -0.76337   3.14868   1.70786
H    -1.64759   1.80234   2.44811
H     0.02707   2.13962   2.97175
H    -3.29900   2.47663  -1.59963
H    -1.65055   2.72803  -2.28077
H    -2.37556   1.08593  -2.27812
