26
Generated by autodE on: 2022-06-22. E = -689.460873 Ha
C    -3.03642  -1.14930  -0.08407
O    -2.02299  -0.85791   0.88417
C    -0.83568  -0.40470   0.38411
C    -0.42050   0.88784   0.50541
O    -1.04592   1.92757   1.05663
C    -2.36037   1.83304   1.61531
C     0.93582   1.28864  -0.01212
O     1.29729   2.44980   0.12013
C     1.79410   0.27668  -0.67936
C     3.12135   0.72972  -1.20458
C     1.37010  -1.00621  -0.79566
C     2.20321  -2.05967  -1.45453
C     0.04381  -1.41536  -0.24209
O    -0.32383  -2.58784  -0.29392
H    -3.91763  -1.48749   0.47712
H    -3.29486  -0.24490  -0.65970
H    -2.71578  -1.94418  -0.77372
H    -2.59211   2.84223   1.97876
H    -3.09401   1.54129   0.85047
H    -2.38398   1.12128   2.45063
H     3.27832   1.79851  -1.01744
H     3.19422   0.54524  -2.28907
H     3.94150   0.16352  -0.73319
H     2.43966  -1.77555  -2.49320
H     3.16869  -2.17386  -0.93393
H     1.68903  -3.02769  -1.45941
