48
Generated by autodE on: 2022-06-22. E = -1338.580665 Ha. Imaginary frequency = -272.6 cm-1
C     1.98712  -2.73325  -2.43443
O     2.37794  -1.87503  -1.35736
C     1.68600  -0.72333  -1.21651
O     0.77276  -0.40160  -1.97032
C     2.13979  -0.03057  -0.03380
O     1.82579   1.21361   0.32500
C     0.73956   1.91517   0.06441
C     0.60148   3.18002   0.84144
C     0.30739   2.03310  -1.37918
O     1.12574   2.29889  -2.23456
O    -1.00164   2.02481  -1.55385
C    -1.47512   2.25975  -2.89098
C    -0.51703   0.41241   1.49006
O    -0.35760   1.23003   2.57948
C    -1.12520   0.85922   3.72956
C    -1.78007   0.54176   0.74210
O    -2.55250   1.46746   0.98810
C    -2.10066  -0.48830  -0.28511
C    -3.25862  -0.22432  -1.19456
C    -1.38037  -1.63634  -0.35442
C    -1.70565  -2.70460  -1.35316
C    -0.25013  -1.90042   0.58046
O     0.26850  -3.01313   0.63608
C     0.21152  -0.79173   1.46132
O     0.99949  -1.00693   2.52970
C     1.96465  -2.05875   2.59194
H     0.94355  -3.05575  -2.32142
H     2.65483  -3.60132  -2.38401
H     2.10789  -2.22162  -3.40071
H     3.01970  -0.39074   0.49305
H     1.04467   4.01950   0.27689
H    -0.46551   3.39939   0.99150
H     1.09746   3.08658   1.81361
H    -2.56736   2.28454  -2.82384
H    -1.09062   3.21750  -3.26787
H    -1.14826   1.44250  -3.54899
H    -0.85104   1.56155   4.52820
H    -2.20431   0.94354   3.52730
H    -0.88909  -0.16707   4.05095
H    -3.69873   0.76036  -0.99963
H    -4.04122  -0.99031  -1.06330
H    -2.94276  -0.27535  -2.24860
H    -1.53254  -2.33476  -2.37702
H    -2.76770  -2.99038  -1.29228
H    -1.09201  -3.59819  -1.19305
H     2.66458  -1.76496   3.38583
H     1.49218  -3.01581   2.85005
H     2.50096  -2.16688   1.64004
