32
Generated by autodE on: 2022-05-25. E = -673.042570 Ha
C     2.24517   1.24435  -2.57012
O     1.71384   0.55938  -1.42697
C     0.45428   0.84549  -1.07959
O    -0.23463   1.63774  -1.69153
C     0.02944   0.10021   0.16983
C     0.53538   0.86274   1.40582
C     1.99263   1.08811   1.63997
N    -0.37632   1.27157   2.20333
C    -1.69676   0.88573   1.70910
C    -1.51258   0.07088   0.41331
C    -1.80746  -1.43903   0.53327
C    -1.67050  -2.06900  -0.86896
C    -0.13100  -2.05843  -1.11400
C     0.42652  -1.40827   0.17135
C    -0.53830  -1.96517   1.23357
H     1.65573   1.00692  -3.46739
H     2.23795   2.33123  -2.40415
H     3.27416   0.88522  -2.68662
H     2.42499   1.71062   0.84049
H     2.53896   0.13129   1.62656
H     2.15506   1.58289   2.60663
H    -2.29892   1.79435   1.54852
H    -2.21868   0.30739   2.48904
H    -2.06490   0.52142  -0.42023
H    -2.76298  -1.65388   1.03250
H    -2.22280  -1.49567  -1.62854
H    -2.06560  -3.09591  -0.87418
H     0.26396  -3.08050  -1.21185
H     0.15637  -1.51497  -2.02559
H     1.49775  -1.57679   0.33677
H    -0.50488  -3.06362   1.29687
H    -0.37915  -1.54971   2.23921
