9
Generated by autodE on: 2022-05-25. E = -172.071457 Ha
C     1.81630  -0.14597  -0.14685
N     0.55853   0.08198  -0.19930
C    -0.62828   0.35808  -0.32037
C    -1.72285  -0.18968   0.53552
H     2.24561  -0.96231  -0.73607
H     2.45835   0.49007   0.47051
H    -2.24665   0.64845   1.02311
H    -1.37505  -0.90152   1.30543
H    -2.47077  -0.68115  -0.10723
