37
Generated by autodE on: 2022-06-03. E = -924.984057 Ha
C     2.40258   0.85892  -4.62538
N     2.12370   1.31402  -3.27620
C     1.56602   0.51073  -2.36487
O     1.25223  -0.66333  -2.57680
C     1.37532   1.12942  -0.96462
F     1.59795   2.51387  -1.05658
C     0.04961   0.84205  -0.43413
C    -0.77038   0.24840   0.23102
C    -1.31011  -0.65231   1.24078
C    -2.60140  -1.35888   0.74487
C    -3.04017  -2.58785   1.48158
O    -3.21433  -0.89863  -0.19849
C    -1.73406   0.12973   2.52731
C    -2.29704   1.50382   2.33144
O    -1.62628  -0.39668   3.61506
C    -0.17285  -1.66808   1.56445
C     1.22471  -1.05292   1.79240
C     2.15988  -0.86510   0.56411
C     2.40830   0.56333   0.04181
H     3.04095  -0.03747  -4.61184
H     2.92143   1.65773  -5.16824
H     1.47425   0.60793  -5.16300
H     2.31123   2.27692  -3.01735
H    -2.97365  -2.44340   2.56959
H    -2.36507  -3.42075   1.22536
H    -4.06394  -2.85014   1.18587
H    -1.47453   2.19081   2.07371
H    -3.00094   1.51521   1.48506
H    -2.78466   1.84667   3.25285
H    -0.47964  -2.20964   2.46885
H    -0.12446  -2.40072   0.74430
H     1.13024  -0.10356   2.34582
H     1.73908  -1.74022   2.48130
H     3.15064  -1.24896   0.85062
H     1.82572  -1.50392  -0.26762
H     3.39346   0.61865  -0.44752
H     2.42162   1.27545   0.88236
