48
Generated by autodE on: 2022-06-03. E = -1301.795230 Ha. Imaginary frequency = -374.0 cm-1
C    -0.84918  -4.83778  -0.36667
N    -0.31367  -3.58938   0.13701
C    -0.97874  -2.77727   0.96954
O    -2.08992  -3.01642   1.44712
C    -0.25480  -1.45332   1.30103
F     1.13662  -1.71433   1.13704
C    -0.48044  -1.08184   2.76822
C    -0.14105   0.35028   3.17986
C     1.26257   0.89435   2.81575
C     1.23902   2.06329   1.82085
C     1.11722   1.68641   0.31342
C     2.42264   1.02801  -0.23411
C     3.73176   1.60298   0.22835
O     2.37240   0.09149  -1.00400
C     0.91655   2.98488  -0.52325
C    -0.11102   3.97565  -0.06005
O     1.61286   3.18297  -1.50057
C    -0.00232   0.74671   0.10038
C    -0.58368  -0.34433   0.35175
C    -2.08879  -0.47529  -1.19013
C    -3.11904  -1.52506  -1.00951
N    -2.34825   0.85408  -1.13832
N    -1.25216   1.53027  -1.54583
C    -0.60373   0.64195  -2.38873
O     0.31090   0.82917  -3.15334
O    -1.19395  -0.61639  -2.22338
H    -0.14646  -5.66394  -0.18106
H    -1.03779  -4.77799  -1.45034
H    -1.79423  -5.05197   0.14584
H     0.60421  -3.28719  -0.17377
H    -1.53759  -1.27777   2.99310
H     0.10817  -1.81162   3.34873
H    -0.27257   0.39537   4.27233
H    -0.90685   1.02557   2.76645
H     1.74214   1.27224   3.73128
H     1.91445   0.08834   2.44768
H     2.14244   2.67805   1.93426
H     0.39332   2.71471   2.07848
H     3.70913   2.70064   0.26555
H     4.53322   1.25616  -0.43672
H     3.93565   1.24066   1.24975
H     0.36795   4.64804   0.67185
H    -0.44254   4.57578  -0.91725
H    -0.96621   3.49316   0.42895
H    -3.85569  -1.43489  -1.82384
H    -2.66299  -2.51850  -1.06552
H    -3.62274  -1.40520  -0.04363
H    -2.90555   1.26201  -0.38838
