37
Generated by autodE on: 2022-06-10. E = -1431.581713 Ha
C     2.84228   3.87183   1.19657
N     2.13523   2.75306   0.60209
C     2.66945   1.53342   0.54300
O     3.77863   1.22619   0.97716
C     1.78021   0.44314  -0.13516
C     2.52008   0.03459  -1.33930
N     3.11327  -0.26822  -2.28880
N     0.46401   0.97045  -0.50896
C    -0.44123   0.46629   0.25915
C    -1.85385   0.86785   0.17503
C    -2.29908   1.70302  -0.86728
C    -3.64076   2.06383  -0.95655
C    -4.55885   1.59917  -0.00571
C    -4.12672   0.77144   1.03386
C    -2.78278   0.40436   1.12335
C     0.05035  -0.58194   1.22827
C    -0.44568  -2.06216   0.98683
O     0.72308  -2.79478   1.36027
C     1.60906  -2.20713   0.38506
C     0.81878  -2.37252  -0.90678
C    -0.45941  -2.28790  -0.51845
Cl   -1.89247  -2.24502  -1.47315
C     1.54802  -0.71838   0.87426
H     3.15748   3.63115   2.22287
H     2.17368   4.74029   1.22278
H     3.74114   4.13065   0.61445
H     1.22112   2.88719   0.17789
H    -1.58190   2.05550  -1.60896
H    -3.97706   2.70794  -1.77214
H    -5.61147   1.88251  -0.07812
H    -4.83833   0.40725   1.77793
H    -2.45886  -0.24169   1.94023
H    -0.13764  -0.29848   2.27216
H    -1.32927  -2.37100   1.55284
H     2.60427  -2.66153   0.42162
H     1.22389  -2.45496  -1.91217
H     2.21131  -0.61702   1.73824
