13
Generated by autodE on: 2022-06-10. E = -767.141592 Ha
Cl   -1.41685   1.80281  -0.27868
C    -0.58376   0.30024  -0.15555
C    -0.95686  -0.85102   0.40824
C     0.31076  -1.73080   0.29275
C     1.37806  -1.13751   1.24530
C     1.73775   0.01985   0.68380
C     0.88606   0.11018  -0.60515
O     0.82969  -1.27595  -0.97780
H    -1.87996  -1.11377   0.92090
H     0.16301  -2.81590   0.31297
H     1.68804  -1.58072   2.19114
H     2.42253   0.78929   1.03815
H     1.24072   0.75577  -1.41543
