37
Generated by autodE on: 2022-06-10. E = -1431.467520 Ha. Imaginary frequency = -330.4 cm-1
C     4.17942   3.00962   0.56027
N     3.45889   2.06239  -0.26827
C     2.14123   1.83728  -0.08912
O     1.46202   2.45825   0.73786
C     1.52055   0.77800  -0.93801
C     2.22084   0.15584  -2.00083
N     2.83574  -0.35449  -2.85243
N     0.19480   0.67735  -0.87477
C    -0.70794   0.51892  -0.08059
C    -2.06202   0.95512   0.12875
C    -2.54866   2.05775  -0.60863
C    -3.85749   2.49110  -0.42246
C    -4.68810   1.83495   0.49480
C    -4.20993   0.74499   1.23047
C    -2.90020   0.30480   1.05455
C     0.29875  -0.65954   1.59248
C    -0.20283  -2.12229   1.39027
O     0.96794  -2.86440   1.78564
C     1.85690  -2.20008   0.84501
C     1.11142  -2.45208  -0.47461
C    -0.17554  -2.40957  -0.11967
Cl   -1.59279  -2.47944  -1.10084
C     1.62819  -0.73284   1.27086
H     4.20482   2.69117   1.61555
H     3.71132   4.00481   0.51786
H     5.20944   3.08866   0.19189
H     3.98253   1.49472  -0.92618
H    -1.88975   2.55909  -1.31932
H    -4.23452   3.34248  -0.99279
H    -5.71540   2.17771   0.63794
H    -4.86110   0.23811   1.94511
H    -2.52755  -0.54257   1.62891
H    -0.16942   0.04776   2.27522
H    -1.09917  -2.42555   1.94069
H     2.88282  -2.57582   0.91589
H     1.55849  -2.53741  -1.46167
H     2.42901  -0.04985   1.53684
