27
Generated by autodE on: 2022-10-20. E = -1220.546088 Ha
C     3.65053  -0.91271   2.15331
N     2.28462  -0.83647   1.66993
C     2.00822  -0.71088   0.36677
O     2.84922  -0.67441  -0.52918
C     0.52537  -0.56015   0.06053
N    -0.42473  -1.29346   0.86323
C    -1.59641  -0.87563   0.04602
C    -2.94911  -1.42078   0.40665
C    -1.06356  -1.26361  -1.36530
O    -1.67184  -1.65827  -2.32738
O     0.27651  -1.08589  -1.33206
C    -1.40431   0.65096   0.06860
O    -2.48481   1.41303  -0.00910
C    -2.32962   2.83321  -0.14662
C    -0.06730   0.84378   0.09719
Cl    0.92375   2.25640   0.01320
H     4.20304   0.01258   1.92518
H     3.63451  -1.05967   3.23944
H     4.18520  -1.75370   1.68626
H     1.51250  -0.85291   2.32947
H    -0.26032  -2.30033   0.75357
H    -2.93330  -2.52007   0.38137
H    -3.69485  -1.06697  -0.31890
H    -3.24498  -1.08639   1.41054
H    -3.34518   3.24281  -0.20166
H    -1.78022   3.07184  -1.06876
H    -1.80636   3.25088   0.72541
