27
Generated by autodE on: 2022-10-20. E = -1220.449487 Ha. Imaginary frequency = -345.9 cm-1
C     3.67627  -0.91238   2.02886
N     2.29555  -1.02541   1.59718
C     1.98567  -1.02672   0.28596
O     2.82124  -1.04892  -0.62016
C     0.54018  -0.95862  -0.04523
N    -0.51062  -1.41454   0.67192
C    -1.64164  -1.24148  -0.06257
C    -3.02151  -1.52636   0.39509
C    -1.20788  -1.07174  -1.42785
O    -1.79921  -1.01132  -2.49006
O     0.19219  -0.99294  -1.35649
C    -1.29005   1.16611  -0.04205
O    -2.53000   1.52090  -0.29123
C    -2.73089   2.94695  -0.41293
C    -0.07398   1.24419   0.20852
Cl    1.31587   2.11875   0.63562
H     4.07734   0.09741   1.83620
H     3.73147  -1.11733   3.10503
H     4.30246  -1.63940   1.49426
H     1.57505  -0.79518   2.27513
H    -0.51070  -1.48302   1.68914
H    -3.28309  -2.58743   0.24208
H    -3.72754  -0.91887  -0.18797
H    -3.14201  -1.28677   1.46107
H    -3.79828   3.09129  -0.62023
H    -2.12390   3.34065  -1.24237
H    -2.45307   3.44784   0.52689
