43
Generated by autodE on: 2022-10-08. E = -1316.292994 Ha
C     2.08587  -1.46532   2.45531
C     2.48184  -1.53732   1.01104
O     3.45137  -2.15881   0.60638
C     1.82119  -0.51154   0.02625
C     2.95875   0.31663  -0.44036
N     3.90902   0.93928  -0.67892
O     0.89957   0.33989   0.67791
C    -0.39486   0.35923   0.02785
C    -1.35978  -0.44860   0.90955
C    -2.24398  -1.41906   0.42779
C    -3.10270  -2.09802   1.30135
C    -3.09213  -1.81262   2.66706
C    -2.21704  -0.83579   3.15738
C    -1.36534  -0.15930   2.28484
C    -0.87008   1.80854  -0.04384
C     0.02134   2.87302   0.13251
C    -0.42266   4.19443   0.01481
C    -1.75923   4.46547  -0.28822
C    -2.65225   3.40416  -0.47354
C    -2.21032   2.08594  -0.34982
C    -0.13012  -0.25376  -1.38003
C     0.12675   0.82163  -2.45946
O    -0.85752   1.12160  -3.18300
O     1.27736   1.32421  -2.53042
C     1.05711  -1.20042  -1.12833
C     0.54645  -2.60903  -0.74558
O     0.74573  -2.99202   0.43951
O    -0.04861  -3.24603  -1.64268
H     2.51133  -0.53784   2.87671
H     2.51353  -2.32496   2.98858
H     0.99965  -1.42627   2.58685
H    -2.26585  -1.67622  -0.63037
H    -3.78003  -2.85787   0.90424
H    -3.76130  -2.34477   3.34731
H    -2.20100  -0.59877   4.22396
H    -0.68917   0.60464   2.67246
H     1.06584   2.66589   0.36283
H     0.28346   5.01562   0.16098
H    -2.10510   5.49789  -0.37982
H    -3.69926   3.60386  -0.71418
H    -2.91255   1.26308  -0.49641
H    -1.00113  -0.81692  -1.72138
H     1.68066  -1.28950  -2.02626
