33
Generated by autodE on: 2022-10-08. E = -861.174781 Ha
C     3.16170   1.23940  -1.82040
C     3.04925  -0.22884  -1.47325
O     3.93159  -1.04266  -1.79784
C     1.88203  -0.65365  -0.75797
C     1.72283  -1.98023  -0.33122
N     1.64954  -3.09529   0.01772
O     1.00132   0.34192  -0.41002
C    -0.18782   0.32687   0.09771
C    -0.99454  -0.89429   0.16034
C    -1.66127  -1.24944   1.34794
C    -2.45223  -2.39647   1.38426
C    -2.60723  -3.17836   0.23464
C    -1.96092  -2.81904  -0.95346
C    -1.14657  -1.69038  -0.99230
C    -0.66162   1.62034   0.55856
C     0.25531   2.67573   0.77366
C    -0.19795   3.91883   1.19971
C    -1.56547   4.13238   1.41956
C    -2.48114   3.09611   1.20681
C    -2.03852   1.84718   0.77881
H     4.09975   1.40246  -2.36682
H     3.15467   1.85844  -0.90888
H     2.31165   1.56558  -2.43966
H    -1.53834  -0.63584   2.24156
H    -2.95291  -2.67978   2.31234
H    -3.23475  -4.07194   0.26400
H    -2.08880  -3.42477  -1.85282
H    -0.63980  -1.41185  -1.91809
H     1.32054   2.50238   0.61797
H     0.51643   4.72664   1.37098
H    -1.91691   5.10974   1.75777
H    -3.54764   3.26524   1.36815
H    -2.75992   1.05243   0.59026
