10
Generated by autodE on: 2022-10-08. E = -455.051690 Ha
O     2.73088  -0.37703   1.10963
C     1.96804  -0.01657   0.17012
O     2.33665   0.46358  -0.93719
C     0.48356  -0.18440   0.42567
C    -0.48357   0.18404  -0.42587
C    -1.96803   0.01653  -0.17015
O    -2.73097   0.37806  -1.10916
O    -2.33657  -0.46429   0.93690
H     0.20727  -0.63410   1.38549
H    -0.20730   0.63381  -1.38568
