46
Generated by autodE on: 2022-06-07. E = -1631.445057 Ha
C    -2.43343   2.58672   3.14851
N    -1.86385   2.13563   1.89212
C    -1.92514   0.82488   1.56552
O    -2.64409  -0.00535   2.12785
N    -1.17029   0.44983   0.46252
O    -0.33710   1.40310  -0.14150
C     0.93944   0.79364  -0.20942
C     1.72595   0.95354   1.12042
O     2.89047   0.64207   1.22814
O     0.99874   1.52625   2.05739
C     1.60044   1.68472   3.35400
C     1.79173   1.50772  -1.26682
O     2.77230   0.99206  -1.75267
O     1.35717   2.72777  -1.51180
C     2.10381   3.49937  -2.47499
C     0.63614  -0.71422  -0.57828
C     0.72478  -0.85865  -2.11644
C     1.61177  -1.90616  -2.70980
O     0.08750  -0.07928  -2.79921
C     1.43649  -1.72683   0.31392
C     0.97458  -3.14925   0.03937
C    -0.23242  -3.25014   0.60517
C    -0.50305  -1.88494   1.21514
O     0.80950  -1.45370   1.57771
C    -0.82065  -0.88443   0.02726
C    -1.93885  -1.40954  -0.90829
F    -2.92286  -1.95755  -0.17305
F    -2.48287  -0.43466  -1.63970
F    -1.51325  -2.36024  -1.75928
H    -1.87269   2.21088   4.02191
H    -3.47430   2.24766   3.23784
H    -2.42129   3.68392   3.16879
H    -1.06802   2.64821   1.52509
H     1.85861   0.69820   3.76373
H     2.50159   2.30878   3.28152
H     0.84088   2.17292   3.97430
H     2.09882   2.98707  -3.44684
H     1.59056   4.46423  -2.54473
H     3.13752   3.63416  -2.12816
H     1.11406  -2.88642  -2.63954
H     1.78162  -1.67215  -3.76841
H     2.56703  -1.97558  -2.17088
H     2.51105  -1.53547   0.34294
H     1.52687  -3.88891  -0.53627
H    -0.93322  -4.08341   0.59494
H    -1.20355  -1.80976   2.04733
