21
Generated by autodE on: 2022-06-07. E = -797.432623 Ha
C     2.83888  -1.55073  -0.82694
C     2.02910  -0.42174  -0.25753
O     2.49532   0.69203  -0.05561
C     0.61260  -0.72011   0.05512
C    -0.40837   0.12594   0.27934
C    -0.44512   1.62097   0.29061
F     0.21183   2.14099   1.34144
F     0.08590   2.15950  -0.82078
F    -1.71764   2.06021   0.36578
C    -1.66367  -0.77148   0.40058
C    -1.93433  -1.34215  -1.01151
C    -0.92862  -2.19191  -1.23315
C    -0.06088  -2.12134   0.04364
O    -1.07307  -1.91059   1.04129
H     3.83062  -1.19188  -1.12990
H     2.94630  -2.34341  -0.06732
H     2.31512  -2.00277  -1.68542
H    -2.51061  -0.36209   0.95907
H    -2.75354  -1.03492  -1.65993
H    -0.69078  -2.78334  -2.11622
H     0.57892  -2.97823   0.27364
