25
Generated by autodE on: 2022-06-07. E = -833.900836 Ha
C     3.85132   0.10018  -2.10108
N     3.15883   0.86166  -1.07638
C     2.06030   0.45636  -0.40770
O     1.57373   1.09444   0.54523
N     1.60119  -0.78903  -0.82719
O     0.44238  -1.15614  -0.25677
C    -0.53569  -0.42670   0.14421
C    -1.66483  -1.18035   0.76428
O    -2.75977  -0.67994   0.91892
O    -1.32298  -2.41382   1.10226
C    -2.35987  -3.23137   1.67544
C    -0.71632   1.00326  -0.26449
O    -0.50857   1.34994  -1.40855
O    -1.21012   1.75040   0.70166
C    -1.43346   3.13934   0.39035
H     4.30978  -0.81761  -1.69793
H     3.16832  -0.18304  -2.91351
H     4.64482   0.73145  -2.52017
H     3.61557   1.68034  -0.68505
H    -2.73409  -2.77132   2.60093
H    -1.89277  -4.19892   1.88856
H    -3.18605  -3.35028   0.96026
H    -1.83240   3.58899   1.30579
H    -2.15626   3.23240  -0.43195
H    -0.48247   3.61337   0.10963
