25
Generated by autodE on: 2022-07-27. E = -833.903437 Ha
C    -2.58379   0.65063   3.53661
N    -1.99028   1.38605   2.43987
C    -1.45505   0.76287   1.37197
O    -1.33339  -0.46992   1.28034
N    -1.15454   1.66459   0.34948
O    -0.49809   1.11980  -0.68045
C     0.31613   0.12144  -0.69930
C     0.98517  -0.41003   0.52933
O     1.40448   0.34422   1.38298
O     1.14241  -1.71827   0.50085
C     1.80439  -2.31084   1.63444
C     0.81676  -0.24746  -2.05289
O     1.77551  -0.97622  -2.20898
O     0.10544   0.30790  -3.02385
C     0.54140   0.04106  -4.36868
H    -2.60461   1.28884   4.42936
H    -1.98310  -0.24377   3.74980
H    -3.61506   0.32739   3.31236
H    -2.17426   2.38182   2.35492
H     1.83186  -3.38715   1.43371
H     2.82311  -1.91066   1.73126
H     1.23184  -2.10302   2.54931
H     0.50437  -1.03882  -4.57083
H    -0.15660   0.57747  -5.02058
H     1.56659   0.40972  -4.51519
