46
Generated by autodE on: 2022-06-07. E = -1631.325613 Ha. Imaginary frequency = -124.2 cm-1
C    -1.45319   2.71451   3.73121
N    -1.43125   2.39404   2.31689
C    -1.62004   1.12608   1.88608
O    -2.10989   0.22508   2.56405
N    -1.49707   0.93172   0.48360
O    -0.48568   1.50057  -0.17042
C     0.80780   1.51411  -0.04071
C     1.61591   1.16724   1.16647
O     2.82924   1.12332   1.16127
O     0.85843   0.86675   2.20175
C     1.49359   0.39814   3.40099
C     1.47856   2.00464  -1.29227
O     2.68097   2.05069  -1.43939
O     0.59126   2.34768  -2.21646
C     1.11651   2.70974  -3.50418
C     0.55866  -1.30540  -0.46931
C     1.38687  -1.01445  -1.66577
C     2.85937  -1.27162  -1.52191
O     0.88968  -0.60803  -2.70914
C     1.06860  -2.11475   0.75555
C     0.73691  -3.59124   0.43123
C    -0.59465  -3.66760   0.51475
C    -1.04964  -2.24003   0.90435
O     0.04838  -1.82119   1.71358
C    -0.80229  -1.35920  -0.34461
C    -1.85611  -1.20190  -1.40294
F    -3.08836  -1.26868  -0.86630
F    -1.78438  -0.07004  -2.10583
F    -1.76609  -2.22715  -2.28214
H    -0.48560   2.49701   4.21578
H    -2.23252   2.12517   4.23025
H    -1.67937   3.78129   3.85967
H    -0.94960   3.04464   1.70378
H     2.16184  -0.44218   3.17138
H     2.06420   1.21675   3.86135
H     0.67787   0.07685   4.05600
H     1.66750   1.86140  -3.93353
H     0.24512   2.95244  -4.12218
H     1.78058   3.58101  -3.41620
H     3.03176  -2.33279  -1.27643
H     3.37793  -1.01634  -2.45414
H     3.26175  -0.67720  -0.68699
H     2.06938  -1.88037   1.12855
H     1.46634  -4.34676   0.14317
H    -1.26517  -4.50272   0.31823
H    -2.01207  -2.11376   1.40404
