16
Generated by autodE on: 2022-05-31. E = -644.713696 Ha
F    -1.41219   1.34861   1.02049
C    -1.48024   0.19845   0.31061
F    -2.14172  -0.69638   1.06339
F    -2.25462   0.46489  -0.76374
C    -0.13066  -0.26672  -0.07651
C     0.52731  -1.37073   0.28294
C     1.93935  -1.18527  -0.32040
C     2.61893  -0.04625   0.47628
C     1.95928   1.06051   0.12364
C     0.88902   0.57862  -0.88239
O     1.60296  -0.48440  -1.53458
H     0.20440  -2.19600   0.91576
H     2.52303  -2.09171  -0.51103
H     3.41760  -0.18278   1.20437
H     2.06803   2.08458   0.47844
H     0.48088   1.30879  -1.58896
