40
Generated by autodE on: 2022-05-31. E = -1366.293604 Ha. Imaginary frequency = -310.7 cm-1
C     4.90576  -0.79986   1.13477
N     4.08745  -0.13606   0.14283
C     3.02755   0.61064   0.49724
O     2.70665   0.82461   1.67475
C     2.21106   1.15470  -0.62626
C     2.55182   1.10580  -2.05365
C     1.68632   1.88882  -3.00621
O     3.50588   0.43369  -2.46120
N     1.15103   1.86590  -0.26725
C    -0.03785   1.92448  -0.15420
C    -1.15566   2.85319   0.03592
O    -1.69427   3.39549  -0.90425
O    -1.51132   2.92503   1.30808
C    -2.64893   3.75848   1.61603
C    -0.73355  -0.16010  -0.81459
C    -1.16987  -0.65549   0.58644
O     0.11105  -0.80877   1.21170
C     0.66231  -1.68349   0.20911
C    -0.41430  -2.79262   0.19287
C    -1.55757  -2.14624   0.43577
C    -2.94917  -2.64794   0.41369
F    -3.66599  -2.04644  -0.56430
F    -3.60015  -2.39191   1.56908
F    -3.02030  -3.97261   0.20324
C     0.42491  -0.84345  -1.06186
H     5.70703  -1.34875   0.62490
H     4.31395  -1.51264   1.73256
H     5.36043  -0.07653   1.83063
H     4.25566  -0.24882  -0.85798
H     0.63910   1.55296  -2.94852
H     2.06051   1.75012  -4.02799
H     1.69622   2.95911  -2.74654
H    -3.53405   3.39977   1.07268
H    -2.43689   4.80092   1.34138
H    -2.79665   3.66769   2.69728
H    -1.41083   0.28563  -1.54286
H    -1.84462  -0.01731   1.16600
H     1.68814  -1.98601   0.44050
H    -0.24991  -3.84215  -0.04698
H     0.91904  -1.02147  -2.01434
