26
Generated by autodE on: 2022-06-27. E = -689.456477 Ha
C     2.07910   2.63436  -0.76625
O     1.92162   1.21546  -0.90820
C     0.80128   0.60835  -0.45962
C     0.91729  -0.58137   0.19691
O     2.14718  -1.10553   0.37214
C     2.48717  -1.79857   1.58120
C    -0.29839  -1.34545   0.58372
O    -0.19400  -2.47115   1.06076
C    -1.63809  -0.71866   0.38306
C    -2.83261  -1.46270   0.89376
C    -1.75171   0.46594  -0.26651
C    -3.07876   1.11122  -0.51779
C    -0.53658   1.16353  -0.78303
O    -0.63450   2.18101  -1.46303
H     3.15951   2.81197  -0.67046
H     1.57248   3.00206   0.13869
H     1.69578   3.16758  -1.64628
H     3.56714  -1.64896   1.71943
H     1.95135  -1.37944   2.44548
H     2.27239  -2.87205   1.49790
H    -3.39807  -0.84491   1.61064
H    -3.52541  -1.70101   0.06962
H    -2.53883  -2.39707   1.38608
H    -3.73655   0.43960  -1.09400
H    -2.96479   2.05119  -1.07029
H    -3.59706   1.31817   0.43318
