30
Generated by autodE on: 2022-07-27. E = -780.890638 Ha
N     2.29228  -2.44479  -3.46390
C     1.85830  -1.61253  -2.76287
C     1.34081  -0.60689  -1.92994
C     1.83667   0.70162  -2.03667
N     2.27266   1.78032  -2.16817
N     0.28995  -0.95005  -1.07527
C    -0.22817  -0.32660  -0.03472
C     0.45817   0.81948   0.58845
C     1.80911   0.71650   0.96754
C     2.44028   1.78534   1.60159
C     1.73812   2.96970   1.84981
C     0.39511   3.07801   1.47423
C    -0.24770   2.00499   0.85696
C    -1.50369  -0.81658   0.50078
C    -2.44003  -1.47849  -0.32139
C    -3.62928  -1.96826   0.21600
C    -3.91059  -1.79788   1.57560
C    -2.99533  -1.13056   2.39723
C    -1.80387  -0.63941   1.86774
H    -0.16984  -1.82545  -1.33767
H     2.36007  -0.20559   0.77263
H     3.48622   1.69432   1.90224
H     2.23806   3.80870   2.33907
H    -0.15563   4.00126   1.66686
H    -1.29772   2.08417   0.56993
H    -2.25807  -1.58281  -1.39339
H    -4.34817  -2.47093  -0.43451
H    -4.84592  -2.17747   1.99282
H    -3.20966  -0.99560   3.45958
H    -1.08901  -0.13375   2.51772
