56
Generated by autodE on: 2022-06-27. E = -1470.323528 Ha. Imaginary frequency = -421.0 cm-1
C     4.04864   2.02259  -0.21524
O     3.92161   0.71154   0.34689
C     2.75638   0.03762   0.13037
C     1.93654  -0.32157   1.16273
O     2.05981   0.00685   2.44700
C     2.82498   1.14039   2.87691
C     0.79988  -1.28413   0.94247
O     0.29290  -1.81829   1.93316
C     0.34319  -1.55599  -0.41467
C    -0.44735  -2.83410  -0.54902
C    -1.37995  -0.02471  -0.60209
C    -1.08226   1.27255   0.10524
C    -0.56481   1.39126   1.40407
C    -0.37566   2.64575   1.98658
C    -0.72740   3.80866   1.29648
C    -1.28966   3.70345   0.02215
C    -1.46867   2.45120  -0.56417
C    -2.54757  -0.79902  -0.11765
C    -3.34382  -1.57547  -0.98512
C    -4.40682  -2.33369  -0.49823
C    -4.69528  -2.34937   0.86952
C    -3.91844  -1.58292   1.74216
C    -2.86638  -0.80837   1.25558
N    -1.18054   0.01559  -1.96404
C     0.10129   0.26128  -2.48818
C     0.19085   0.00716  -3.90843
N     0.28271  -0.21879  -5.04364
C     0.75787   1.51926  -2.18561
N     1.36477   2.49720  -2.03634
C     1.19692  -1.17056  -1.53310
C     1.39839  -2.20722  -2.62281
C     2.48351  -0.43220  -1.23291
O     3.30208  -0.23030  -2.12781
H     4.05430   1.98988  -1.31289
H     3.22883   2.67362   0.12639
H     5.00659   2.41874   0.14687
H     3.90090   0.93337   2.82730
H     2.58124   2.02347   2.26988
H     2.52400   1.31498   3.91762
H     0.23894  -3.69751  -0.58442
H    -1.11688  -2.97675   0.30515
H    -1.04320  -2.85955  -1.47032
H    -0.31135   0.51408   1.98813
H     0.04673   2.70637   2.99161
H    -0.57626   4.78871   1.75448
H    -1.58920   4.60031  -0.52458
H    -1.91013   2.38333  -1.55883
H    -3.15943  -1.60052  -2.06017
H    -5.01138  -2.91797  -1.19508
H    -5.52463  -2.94930   1.25058
H    -4.13598  -1.57859   2.81237
H    -2.29017  -0.20927   1.95598
H    -1.65575  -0.71674  -2.48855
H     2.05760  -1.82256  -3.40842
H     0.45017  -2.52469  -3.07331
H     1.87511  -3.09816  -2.18358
