38
Generated by autodE on: 2022-06-19. E = -1029.512733 Ha
C    -2.50128   0.01113  -3.33310
N    -1.81125   0.08677  -2.06062
C    -2.21263  -0.62944  -1.00507
O    -3.21697  -1.34811  -1.00256
C    -1.28315  -0.54502   0.22506
C    -2.07918  -0.19524   1.50723
C    -3.05592  -1.19638   2.03949
O    -1.86328   0.86312   2.07143
C    -0.46449  -1.85192   0.36202
C     0.85280  -1.34382   0.94359
C     1.00655   0.02238   0.24338
C     1.76491   1.02964   1.13446
O     2.99795   1.03503   1.17590
N     0.97765   1.83487   1.85302
C     1.52679   2.76514   2.81951
C     1.70573  -0.06357  -1.12266
O     1.27430   0.47623  -2.12084
O     2.81825  -0.78063  -1.08473
C     3.56883  -0.88357  -2.30784
O    -0.31831   0.48105   0.01963
H    -2.39777  -0.98560  -3.79352
H    -2.07604   0.75968  -4.01270
H    -3.57462   0.21499  -3.20517
H    -0.90790   0.55461  -1.99670
H    -2.48685  -1.96918   2.58467
H    -3.59280  -1.69571   1.22361
H    -3.74385  -0.70777   2.74185
H    -0.30421  -2.28083  -0.63820
H    -0.95851  -2.60487   0.98631
H     1.70367  -2.00660   0.75331
H     0.76302  -1.18261   2.02737
H    -0.03299   1.69475   1.78626
H     2.03057   2.23961   3.64751
H     2.26265   3.43281   2.34622
H     0.71113   3.37198   3.23118
H     4.43746  -1.50928  -2.07505
H     2.95637  -1.35214  -3.09088
H     3.89207   0.11368  -2.63816
