32
Generated by autodE on: 2022-07-27. E = -950.769321 Ha
C     1.84016   1.20876   4.08982
N     1.16449   0.77267   2.88440
C     1.82079   0.68704   1.71308
O     3.02670   0.93231   1.58571
C     1.00830   0.27882   0.53606
O    -0.27138   0.26705   0.71417
C    -1.31249  -0.11273  -0.01701
C    -2.59225   0.28654   0.55311
C    -2.58208   1.05223   1.85172
O    -3.65338   0.02507  -0.02904
C    -1.10934  -1.09796  -1.09883
O    -0.02032  -1.68937  -1.21179
N    -2.17176  -1.35131  -1.87934
C    -2.14991  -2.41809  -2.85850
C     1.65744   0.12597  -0.79874
O     2.70627  -0.44927  -0.98516
O     0.98577   0.81766  -1.71879
C     1.43590   0.69122  -3.07724
H     1.12185   1.20604   4.91800
H     2.67663   0.53724   4.34040
H     2.24715   2.22580   3.97284
H     0.17709   0.54249   2.92245
H    -2.14085   0.43798   2.65374
H    -3.61454   1.31223   2.11616
H    -1.97531   1.96620   1.76858
H    -3.05392  -0.92706  -1.58426
H    -1.25147  -2.34081  -3.48805
H    -2.14635  -3.41435  -2.38438
H    -3.03922  -2.33472  -3.49510
H     1.41542  -0.36508  -3.38013
H     2.45510   1.08903  -3.18188
H     0.73370   1.27588  -3.68176
