32
Generated by autodE on: 2022-06-19. E = -950.770847 Ha
C    -2.47166  -3.08291  -1.24463
N    -2.24805  -1.71773  -0.81352
C    -1.07665  -1.34208  -0.27639
O    -0.09621  -2.09101  -0.17015
C    -1.01484   0.03427   0.28594
O     0.13502   0.56575   0.60695
C     1.35006   0.35257   0.15384
C     2.38518   0.96686   0.99178
C     1.93533   1.72557   2.21178
O     3.58142   0.81708   0.72441
C     1.54624  -0.15750  -1.22886
O     0.61369  -0.11908  -2.04440
N     2.78932  -0.56265  -1.53393
C     3.15414  -0.90781  -2.89267
C    -2.17407   0.73922   0.85631
O    -3.33238   0.40570   0.64455
O    -1.83213   1.80023   1.58733
C    -2.90775   2.56161   2.15802
H    -3.38758  -3.12080  -1.84689
H    -1.62534  -3.42869  -1.85474
H    -2.57999  -3.77225  -0.39004
H    -3.03990  -1.08992  -0.68119
H     1.52640   1.02259   2.95597
H     2.79833   2.24813   2.64296
H     1.13375   2.43815   1.96814
H     3.51185  -0.35711  -0.84195
H     3.22570  -0.01708  -3.54007
H     2.40137  -1.58158  -3.32564
H     4.12649  -1.41556  -2.88371
H    -3.49829   1.93692   2.84352
H    -3.56006   2.95509   1.36527
H    -2.43367   3.38406   2.70506
