18
Generated by autodE on: 2022-06-18. E = -235.968069 Ha
C     1.28878   1.26415   0.79102
C     0.66243   0.14028   0.00105
C     1.69344  -0.63217  -0.78639
C    -0.66244  -0.14029  -0.00104
C    -1.69346   0.63222   0.78634
C    -1.28876  -1.26419  -0.79099
H     1.82317   1.95664   0.11598
H     0.57668   1.85375   1.38056
H     2.05269   0.86711   1.48350
H     2.46538  -1.04099  -0.10989
H     2.22684   0.03958  -1.48289
H     1.28548  -1.46549  -1.37089
H    -2.22727  -0.03957   1.48248
H    -2.46507   1.04147   0.10973
H    -1.28541   1.46522   1.37124
H    -0.57676  -1.85314  -1.38130
H    -1.82222  -1.95724  -0.11578
H    -2.05344  -0.86735  -1.48273
