18
Generated by autodE on: 2022-07-27. E = -584.882717 Ha
C    -4.64900   0.14934   0.18168
N    -3.44447  -0.48024   0.68099
C    -2.22613  -0.10246   0.25606
O    -2.02041   0.78882  -0.56860
N    -1.19878  -0.86027   0.87685
N    -0.04800  -0.54361   0.51173
C     1.04537  -0.27433   0.19586
C     2.45534  -0.10871  -0.07702
O     3.30335  -0.79074   0.45855
O     2.66306   0.85896  -0.96059
C     4.03620   1.11656  -1.31620
H    -5.51612  -0.30612   0.67485
H    -4.65255   1.23106   0.39106
H    -4.75236   0.01489  -0.90724
H    -3.50686  -1.22907   1.36206
H     4.48370   0.22093  -1.76938
H     4.00431   1.93850  -2.03944
H     4.60908   1.40874  -0.42505
