18
Generated by autodE on: 2022-06-18. E = -584.879936 Ha
C     3.88118  -0.97448   1.66902
N     3.30117   0.32476   1.37905
C     2.07862   0.54685   0.85880
O     1.61365   1.66628   0.63255
N     1.37916  -0.65791   0.59668
N     0.24148  -0.48498   0.11088
C    -0.82745  -0.36427  -0.34551
C    -2.16308  -0.42342  -0.90011
O    -2.73248  -1.47366  -1.10624
O    -2.63773   0.79235  -1.13411
C    -3.96649   0.86511  -1.68892
H     3.96291  -1.59583   0.76449
H     4.88938  -0.81748   2.07245
H     3.29183  -1.52905   2.41530
H     3.83761   1.15976   1.59012
H    -3.99917   0.35134  -2.65976
H    -4.17680   1.93298  -1.81129
H    -4.68884   0.40583  -0.99976
