42
Generated by autodE on: 2022-10-21. E = -903.344076 Ha
C    -3.55890   1.22709  -1.79514
O    -2.85933   0.14772  -1.15486
C    -1.63432  -0.12559  -1.60022
O    -1.10741   0.43259  -2.54079
C    -0.94174  -1.19684  -0.75611
O    -0.05769  -1.95916  -1.56730
N     1.29051  -1.51137  -1.32837
C     1.22979  -0.68791  -0.16963
C    -0.03094  -0.55282   0.28013
C    -0.61401   0.17204   1.47050
O    -1.84868  -0.44006   1.84809
C    -1.68331  -1.68510   2.49635
C    -0.90041   1.65853   1.20114
C     0.29420   2.60037   1.37963
C     1.56728   2.24329   0.59996
C     2.38238   1.08677   1.22306
C     2.55857  -0.17731   0.35513
C     3.20082  -1.29039   1.20659
C     3.49260   0.15158  -0.82809
H    -3.71720   1.00255  -2.85949
H    -2.98730   2.16144  -1.69757
H    -4.52055   1.31411  -1.27700
H    -1.69954  -1.87161  -0.33223
H     1.54587  -0.95435  -2.15187
H     0.07865   0.09316   2.32481
H    -1.11569  -1.57440   3.43959
H    -1.15296  -2.42083   1.86398
H    -2.68494  -2.07660   2.72546
H    -1.31624   1.77698   0.18908
H    -1.69542   1.95804   1.90259
H     0.54646   2.66563   2.45296
H    -0.03776   3.60920   1.08362
H     2.20099   3.14227   0.55006
H     1.29893   2.00855  -0.44397
H     1.94178   0.79705   2.18794
H     3.39718   1.43739   1.46881
H     4.18315  -0.96240   1.58259
H     2.56491  -1.53819   2.07031
H     3.34699  -2.20501   0.61262
H     3.06358   0.92516  -1.48360
H     4.45127   0.52804  -0.44034
H     3.70632  -0.73875  -1.43803
