12
Generated by autodE on: 2022-10-21. E = -397.802562 Ha
C    -2.46246  -0.19291  -1.22138
O    -1.23903   0.53375  -1.04051
C    -0.34593   0.00290  -0.19575
O    -0.52107  -1.05052   0.41144
C     0.84003   0.82630  -0.09307
O     1.84816   0.51370   0.67456
N     2.03070  -0.51168   1.46536
H    -3.00122  -0.28427  -0.26678
H    -3.05499   0.38844  -1.93689
H    -2.25935  -1.19662  -1.62285
H     0.98000   1.75647  -0.64147
H     1.17363  -1.08682   1.37822
