30
Generated by autodE on: 2022-10-21. E = -505.392193 Ha
C    -1.38397   3.20817  -1.59648
O    -1.90640   1.91747  -1.35349
C    -0.92333   0.89708  -1.38885
C     0.05307   0.94080  -0.28587
C     0.79516   0.44653   0.53976
C     1.44127  -0.54009   1.41298
C     2.96194  -0.33768   1.50160
C     0.82624  -0.48356   2.82384
C     1.13037  -1.91063   0.72750
C    -0.31932  -2.16203   0.26058
C    -0.73160  -1.69737  -1.16696
C    -1.64304  -0.46078  -1.30414
H    -2.21786   3.92251  -1.54148
H    -0.91771   3.27621  -2.59770
H    -0.62413   3.48823  -0.84252
H    -0.36976   0.95853  -2.34753
H     3.20354   0.61543   1.99716
H     3.41678  -1.15316   2.08585
H     3.41983  -0.33324   0.50065
H     0.99488   0.50199   3.28434
H     1.29305  -1.24833   3.46446
H    -0.25812  -0.66670   2.79790
H     1.80606  -2.02130  -0.13712
H     1.41887  -2.69298   1.44981
H    -1.02896  -1.75581   1.00088
H    -0.46352  -3.25351   0.29417
H    -1.27950  -2.53236  -1.63067
H     0.16948  -1.56035  -1.79008
H    -2.33903  -0.41079  -0.44997
H    -2.25919  -0.55241  -2.21319
