42
Generated by autodE on: 2022-10-21. E = -903.206822 Ha. Imaginary frequency = -72.5 cm-1
C    -2.64269   1.45337  -2.12302
O    -2.48142   0.18683  -1.46897
C    -1.32002  -0.44454  -1.66620
O    -0.42516  -0.00964  -2.38340
C    -1.27812  -1.70818  -0.94323
O    -0.27307  -2.53655  -1.01327
N     0.94573  -2.28115  -1.44159
C     1.23259  -0.38965   0.46988
C     0.10510  -0.38947   0.94936
C    -0.94510   0.24182   1.77905
O    -2.24847  -0.28928   1.61959
C    -2.41335  -1.54721   2.24302
C    -0.98084   1.74245   1.46584
C     0.31752   2.51727   1.75212
C     1.48313   2.47019   0.72981
C     2.63513   1.47108   0.98242
C     2.58870   0.12241   0.19618
C     3.66273  -0.83405   0.73804
C     2.83762   0.37512  -1.30125
H    -2.63269   1.32495  -3.21520
H    -1.83968   2.14391  -1.82821
H    -3.61426   1.83899  -1.79441
H    -2.16898  -2.14340  -0.49583
H     0.89519  -1.35493  -1.89167
H    -0.63829   0.11560   2.83662
H    -2.29709  -1.46960   3.34034
H    -1.68261  -2.28880   1.87142
H    -3.42770  -1.90423   2.01451
H    -1.28149   1.87444   0.41433
H    -1.78817   2.16655   2.08512
H     0.69530   2.23497   2.75116
H     0.01690   3.57323   1.84261
H     1.93451   3.47466   0.72832
H     1.07542   2.33462  -0.28595
H     2.68126   1.23821   2.05913
H     3.59658   1.94670   0.72611
H     4.66524  -0.40342   0.58673
H     3.52333  -1.01748   1.81437
H     3.61851  -1.80080   0.21364
H     2.04567   0.98864  -1.75264
H     3.79753   0.89980  -1.42623
H     2.90029  -0.57111  -1.85763
