34
Generated by autodE on: 2022-10-07. E = -1308.921502 Ha
C     4.22676   0.34572   1.60217
O     2.84571   0.38181   1.22039
C     2.36431  -0.73902   0.66763
O     3.01564  -1.75287   0.45809
N     1.03051  -0.66837   0.40981
O     0.41605   0.60413   0.53507
C    -0.94875   0.29584   0.32458
C    -1.75516   1.56965   0.08084
O    -2.93143   1.52218  -0.21220
O    -1.08479   2.67444   0.37776
C    -1.78036   3.91383   0.16941
C    -1.56370  -0.37392   1.57633
O    -2.46496  -1.18087   1.53216
O    -1.00424   0.07598   2.69149
C    -1.49919  -0.46793   3.92768
C    -0.94801  -0.66835  -0.87297
C    -0.93853   0.09078  -2.22781
O    -0.74641   1.33346  -2.19571
O    -1.14015  -0.61124  -3.24524
C     0.35464  -1.48113  -0.60958
C     1.22647  -1.70361  -1.88160
O     1.94392  -0.73936  -2.24125
O     1.11042  -2.82355  -2.42941
H     4.40153  -0.43655   2.35530
H     4.44553   1.33239   2.02719
H     4.86657   0.16133   0.72716
H    -1.08985   4.70403   0.48491
H    -2.02916   4.02725  -0.89572
H    -2.70031   3.94611   0.77001
H    -1.34587  -1.55613   3.95027
H    -2.56924  -0.24321   4.04056
H    -0.92038   0.01617   4.72201
H    -1.81832  -1.33125  -0.85158
H     0.11097  -2.46013  -0.17673
