10
Generated by autodE on: 2022-10-07. E = -455.046423 Ha
O    -0.76790  -1.21646   0.70152
C    -1.49518  -0.20615   0.48703
O    -2.74381  -0.14793   0.67680
C    -0.84833   1.05556  -0.03604
C     0.42541   1.18164  -0.44491
C     1.50513   0.11579  -0.46630
O     1.52166  -0.67271  -1.44555
O     2.34747   0.16780   0.46850
H    -1.51463   1.92463  -0.08567
H     0.76215   2.16560  -0.79983
