34
Generated by autodE on: 2022-10-07. E = -1308.824279 Ha. Imaginary frequency = -137.8 cm-1
C     3.94465   0.88490  -0.21169
O     2.61939   0.79012   0.32297
C     2.29451  -0.38355   0.87727
O     3.08569  -1.29648   1.06230
N     0.96719  -0.55278   1.23522
O     0.28765   0.57647   0.93518
C    -1.00059   0.53392   0.80747
C    -1.59663   1.79024   0.25331
O    -2.70666   1.83234  -0.23369
O    -0.77827   2.82490   0.38794
C    -1.16894   4.03498  -0.28019
C    -1.89693  -0.42913   1.53264
O    -2.99761  -0.74183   1.13057
O    -1.37030  -0.82785   2.68050
C    -2.15355  -1.74316   3.46686
C    -0.95988  -0.74840  -1.27578
C    -0.53714   0.25041  -2.34171
O     0.01376   1.32066  -1.98470
O    -0.85607  -0.08152  -3.51045
C    -0.18052  -1.75707  -0.77873
C     1.20187  -2.12671  -1.27500
O     1.83695  -1.28064  -1.96252
O     1.59878  -3.27864  -0.96002
H     4.69810   0.74623   0.57726
H     4.08483   0.12768  -0.99639
H     4.02568   1.89160  -0.63855
H    -0.39445   4.77247  -0.04237
H    -2.14905   4.37770   0.07984
H    -1.20857   3.85672  -1.36444
H    -2.35721  -2.65641   2.89016
H    -3.10180  -1.27366   3.76443
H    -1.54552  -1.97304   4.34857
H    -2.03456  -0.77631  -1.07337
H    -0.63261  -2.48392  -0.09760
