17
Generated by autodE on: 2022-06-20. E = -472.479078 Ha
C    -2.78528   0.60630   1.26304
N    -2.79052  -0.11418   0.00242
C    -1.71497  -0.70028  -0.54756
O    -1.68076  -1.25104  -1.65036
C    -0.50343  -0.74569   0.30102
N     0.52605  -0.11904   0.29945
C     1.64686   0.51899   0.40973
C     1.82942   1.63800   1.40041
C     2.71754   0.12986  -0.44222
N     3.62099  -0.15862  -1.12184
H    -3.79284   0.58337   1.69788
H    -2.47655   1.65728   1.14213
H    -2.09806   0.12136   1.97247
H    -3.61743  -0.07192  -0.58952
H     2.09752   2.57359   0.88424
H     2.63654   1.39834   2.11129
H     0.89776   1.79684   1.95977
