26
Generated by autodE on: 2022-06-20. E = -689.456478 Ha
C     1.81798   2.61022  -1.33539
O     1.87108   1.52237  -0.40177
C     0.77981   0.76449  -0.16650
C     0.94170  -0.57816   0.00979
O     2.18668  -1.09550  -0.05787
C     2.41821  -2.35379  -0.70720
C    -0.21111  -1.42994   0.39776
O    -0.03950  -2.61539   0.66593
C    -1.57306  -0.82035   0.45284
C    -2.72742  -1.73148   0.73212
C    -1.73428   0.51445   0.27898
C    -3.07820   1.16961   0.35429
C    -0.55202   1.39277   0.03447
O    -0.67069   2.61373  -0.00296
H     2.83370   2.70659  -1.74383
H     1.11788   2.39629  -2.15650
H     1.53095   3.54669  -0.83932
H     3.44530  -2.30824  -1.09552
H     1.72222  -2.50250  -1.54615
H     2.32863  -3.18929  -0.00053
H    -3.26277  -1.41599   1.64289
H    -2.39331  -2.76755   0.86180
H    -3.45971  -1.69455  -0.09136
H    -3.76298   0.73942  -0.39492
H    -3.00314   2.25042   0.18679
H    -3.54211   0.99677   1.33968
