26
Generated by autodE on: 2022-05-28. E = -773.755315 Ha
C    -1.01215  -2.51283   0.66701
N    -0.11582  -1.66180  -0.12704
N    -0.80759  -0.87163  -1.10723
C    -1.18297   0.43181  -0.51816
C    -2.43419   0.41938   0.27903
N    -3.42309   0.36329   0.88304
C    -1.37082   1.41297  -1.60366
N    -1.53191   2.18306  -2.45397
C     0.03687   0.74556   0.38767
C     1.27076   1.51553  -0.21126
C     1.61062   0.96651  -1.58643
C     2.14645  -0.23985  -1.36559
C     2.15554  -0.40582   0.13794
O     2.30313   0.93831   0.60466
C     0.66554  -0.67893   0.63306
C     0.73009  -0.98502   2.06124
N     0.83634  -1.19369   3.19720
H    -1.60394  -3.12346  -0.02845
H    -0.40638  -3.19648   1.27592
H    -1.69822  -1.95718   1.32928
H    -1.60659  -1.39172  -1.47219
H    -0.28052   1.24026   1.31029
H     1.21596   2.60143  -0.08745
H     1.37138   1.44501  -2.53449
H     2.45162  -0.99900  -2.08397
H     2.89500  -1.08013   0.58130
