12
Generated by autodE on: 2022-07-26. E = -373.912227 Ha
C     1.38410  -2.70118   0.52891
N     1.07675  -1.44566  -0.11095
N     0.16001  -0.78388   0.43840
C    -0.30967   0.43378   0.02017
C    -1.34853   1.04309   0.75244
N    -2.20961   1.56095   1.34745
C     0.24768   1.04372  -1.12303
N     0.69642   1.56284  -2.06683
H     0.74487  -2.91518   1.40277
H     1.27885  -3.51087  -0.21036
H     2.44066  -2.69059   0.84150
H    -0.30821  -1.15816   1.28568
