14
Generated by autodE on: 2022-05-28. E = -399.800820 Ha
N     3.26553  -0.05172   0.40441
C     2.12049  -0.17177   0.21969
C     0.73511  -0.28117  -0.02153
C    -0.10245  -1.30012   0.23940
C    -1.49296  -0.77492  -0.17464
C    -1.87910   0.31684   0.84881
C    -1.05770   1.33755   0.58821
C    -0.18250   0.85244  -0.58630
O    -1.12275   0.04189  -1.30208
H     0.11159  -2.26536   0.69552
H    -2.24800  -1.52448  -0.43164
H    -2.62348   0.19998   1.63523
H    -0.94552   2.29315   1.09855
H     0.30142   1.60248  -1.21915
