26
Generated by autodE on: 2022-05-28. E = -773.691176 Ha. Imaginary frequency = -331.7 cm-1
C    -0.01502  -2.99062  -0.19136
N    -0.16000  -1.59106  -0.52758
N    -1.36224  -1.13866  -0.38127
C    -1.57606   0.20279  -0.62933
C    -2.73134   0.78010  -0.01839
N    -3.63925   1.27778   0.51181
C    -1.20886   0.73614  -1.90330
N    -0.97923   1.18799  -2.94990
C     0.13815   0.92559   0.71087
C     1.27194   1.79867   0.08917
C     1.68254   1.22577  -1.26569
C     2.28274   0.06303  -0.98877
C     2.25763  -0.04778   0.53031
O     2.37388   1.34116   0.91330
C     0.77890  -0.29716   0.97300
C     0.45095  -1.12663   2.06904
N     0.16189  -1.84230   2.94464
H    -0.62371  -3.29162   0.68093
H    -0.31694  -3.59745  -1.06156
H     1.04568  -3.18699   0.00982
H    -2.02249  -1.60935   0.25742
H    -0.61564   1.36860   1.35836
H     1.12146   2.87957   0.16944
H     1.45163   1.66455  -2.23232
H     2.65885  -0.69954  -1.66883
H     3.00421  -0.67923   1.02104
