37
Generated by autodE on: 2022-06-18. E = -1008.264112 Ha. Imaginary frequency = -213.1 cm-1
C     2.34510  -0.58839   2.64834
O     1.82265   0.24408   1.60692
C     1.81744  -0.27402   0.36367
O     2.27334  -1.38290   0.09278
N     1.28014   0.50821  -0.62326
O     0.72987   1.64542  -0.06252
C    -0.07671   2.30195  -0.85594
C     0.10386   2.53181  -2.31247
C     1.39715   2.19022  -2.99561
O    -0.83341   3.05282  -2.91185
C    -1.67564   0.71464  -0.93276
C    -0.91107  -0.25892  -1.55251
C    -0.72380  -1.62114  -0.96401
C    -0.94230  -1.58635   0.53055
C    -0.48774  -2.67273   1.41866
N    -0.01417  -3.78664   0.81629
O    -0.54868  -2.59514   2.66182
C    -1.58419  -0.53314   1.09827
N    -2.07933   0.53261   0.38791
C    -2.72215   1.63745   1.08534
H     2.42544   0.05384   3.53415
H     3.33583  -0.98158   2.37953
H     1.65708  -1.42063   2.85520
H    -0.64443   3.07045  -0.32340
H     1.48626   2.81345  -3.89616
H     1.38662   1.13037  -3.29132
H     2.26087   2.33251  -2.33154
H    -2.20634   1.47830  -1.50241
H    -0.65722  -0.11253  -2.60318
H    -1.43523  -2.31185  -1.46562
H     0.28034  -2.00157  -1.21320
H     0.34342  -4.53683   1.39781
H     0.08033  -3.86857  -0.18813
H    -1.75829  -0.50651   2.17458
H    -1.98248   2.37406   1.44365
H    -3.28200   1.25239   1.94687
H    -3.42148   2.14288   0.40576
