66
Generated by autodE on: 2022-06-15. E = -4352.491425 Ha
C   -14.84687   4.88566  -4.60783
O   -13.94724   4.43569  -5.63881
C   -12.89478   3.72931  -5.26006
O   -12.66631   3.41854  -4.10935
C   -12.03813   3.27132  -6.45706
C   -12.32790   4.26813  -7.60277
O   -11.76682   5.33724  -7.70711
O   -13.29353   3.85031  -8.40804
C   -13.76600   4.77833  -9.39817
C   -12.58033   1.84571  -6.76440
C   -12.01719   0.72798  -5.87333
C   -11.11650  -0.22793  -6.65218
C    -9.69787   0.22970  -7.03685
C    -9.44785   1.61815  -7.68163
Br   -7.49553   1.40680  -8.39994
C   -10.18909   1.94104  -8.96218
C   -10.78594   0.92811  -9.73101
C   -11.42277   1.23286 -10.93535
C   -11.44783   2.54822 -11.40835
C   -10.82023   3.55485 -10.66971
C   -10.20206   3.25569  -9.45555
C    -9.47047   2.73897  -6.63571
C   -10.55529   3.34683  -6.10845
C   -10.09328   4.24660  -4.96553
C   -10.70776   5.58314  -4.93489
N   -11.18677   6.63417  -4.84528
C   -10.17592   3.52090  -3.55371
C   -10.40439   4.36660  -2.34519
O    -9.86278   2.35205  -3.52199
O    -8.70185   4.41752  -5.17839
C    -8.21084   3.33963  -5.98211
C    -7.37136   2.41451  -5.04554
C    -6.61600   3.10666  -3.94226
O    -7.35297   1.21203  -5.18039
C    -7.31247   4.06719  -7.01649
O    -7.76598   4.82985  -7.83763
O    -6.02426   3.84607  -6.81041
C    -5.09933   4.47659  -7.71239
H   -15.24176   4.02697  -4.04834
H   -15.65408   5.41199  -5.12822
H   -14.31715   5.56779  -3.92829
H   -12.93651   5.13708 -10.01969
H   -14.25389   5.62939  -8.90112
H   -14.48875   4.22455 -10.00737
H   -12.38051   1.62936  -7.81820
H   -13.67462   1.89583  -6.68590
H   -12.85853   0.14526  -5.46981
H   -11.48630   1.13527  -5.00083
H   -10.96320  -1.13978  -6.05230
H   -11.66348  -0.55115  -7.55149
H    -9.29982  -0.52603  -7.72740
H    -9.05678   0.20164  -6.14979
H   -10.75634  -0.10838  -9.39934
H   -11.89566   0.43345 -11.51030
H   -11.94452   2.78482 -12.35204
H   -10.81359   4.58330 -11.03668
H    -9.70862   4.04699  -8.89340
H   -10.35609   3.74430  -1.44312
H    -9.61770   5.13957  -2.31128
H   -11.37136   4.88406  -2.40473
H    -7.26521   3.13106  -3.05122
H    -5.72578   2.51066  -3.69916
H    -6.33965   4.13791  -4.18951
H    -4.10081   4.17809  -7.37529
H    -5.28036   4.12380  -8.73809
H    -5.21143   5.56870  -7.67010
