24
Generated by autodE on: 2022-07-27. E = -779.517578 Ha
C     3.48850  -1.88012  -1.71404
O     2.43352  -1.50232  -0.81285
C     1.50637  -0.67796  -1.28546
O     1.46669  -0.22791  -2.41048
C     0.49914  -0.35546  -0.23562
O    -0.50655   0.28923  -0.71494
C    -1.51498   0.88435  -0.05245
C    -2.56818   1.31045  -0.89073
N    -3.46719   1.65149  -1.55156
C    -1.32260   1.36509   1.29711
C    -2.38827   2.25029   1.87959
O    -0.27703   1.09816   1.90356
C     0.46492  -1.01799   1.12440
C     1.68098  -1.00807   1.99412
O    -0.54606  -1.65481   1.36751
H     4.14569  -2.54463  -1.14296
H     3.07101  -2.40476  -2.58496
H     4.03661  -0.98716  -2.04666
H    -2.49749   3.17107   1.28528
H    -3.35928   1.73010   1.86447
H    -2.11901   2.50700   2.91152
H     1.35893  -0.98729   3.04424
H     2.33690  -0.15719   1.77144
H     2.24079  -1.94140   1.82376
