42
Generated by autodE on: 2022-06-15. E = -3572.855741 Ha
C    -3.29748  -3.01576   3.23297
O    -2.99252  -2.57961   1.89597
C    -1.96001  -1.75614   1.74905
O    -1.26222  -1.36196   2.65489
C    -1.80714  -1.32016   0.27731
C    -2.10979  -2.53478  -0.61407
O    -1.28420  -3.38664  -0.86314
O    -3.35882  -2.54926  -1.05710
C    -3.75166  -3.67833  -1.85613
C    -0.45605  -0.82295   0.04439
C     0.43675  -0.01456  -0.07889
C     1.08887   1.27459  -0.17246
Br    1.37661   1.60370  -2.19708
C     2.45028   1.37444   0.47400
C     3.07579   2.62188   0.63437
C     4.32430   2.71200   1.24938
C     4.96823   1.55815   1.71221
C     4.35369   0.31406   1.55304
C     3.10188   0.22336   0.93757
C     0.06512   2.32409   0.32485
C    -1.39195   2.15911  -0.14717
C    -2.33415   1.22827   0.66865
C    -2.76925  -0.10437   0.02779
H    -2.43940  -3.55252   3.66096
H    -4.16043  -3.68419   3.13993
H    -3.54709  -2.15120   3.86385
H    -3.13041  -3.73878  -2.76068
H    -4.80039  -3.50653  -2.12280
H    -3.65041  -4.60584  -1.27491
H     2.59408   3.52807   0.26424
H     4.79933   3.68874   1.36674
H     5.94636   1.63108   2.19325
H     4.84726  -0.59291   1.90978
H     2.62427  -0.75129   0.81825
H     0.43300   3.31931   0.03934
H     0.10383   2.27903   1.42674
H    -1.40090   1.87079  -1.21103
H    -1.82819   3.16892  -0.11534
H    -3.26601   1.78621   0.84610
H    -1.91091   1.04428   1.66945
H    -3.76070  -0.39578   0.40182
H    -2.86037   0.01736  -1.06150
