23
Generated by autodE on: 2022-06-18. E = -351.521382 Ha
C    -3.60232   1.00303  -0.56444
C    -2.57062   0.25952  -0.10771
C    -2.80321  -0.98302   0.71351
C    -1.19605   0.65682  -0.40593
C    -0.07884   0.00048  -0.00370
C     1.26403   0.43814  -0.32587
C     2.42733  -0.15602   0.04211
C     2.51730  -1.40509   0.87226
C     3.75103   0.42265  -0.37123
H    -3.42985   1.90498  -1.15979
H    -4.64024   0.72919  -0.35559
H    -3.87658  -1.16747   0.86157
H    -2.32634  -0.89918   1.70424
H    -2.36312  -1.86935   0.22700
H    -1.08004   1.56659  -1.00731
H    -0.18729  -0.90680   0.59667
H     1.33173   1.34955  -0.93223
H     1.54113  -1.81701   1.15882
H     3.09163  -1.20892   1.79500
H     3.07396  -2.18729   0.32654
H     4.36534   0.66605   0.51435
H     4.33484  -0.31257  -0.95387
H     3.63646   1.33403  -0.97624
