17
Generated by autodE on: 2022-06-18. E = -509.671702 Ha
C     3.25348   0.36572  -0.20246
N     1.81150   0.45535  -0.28741
C     0.98135  -0.41143   0.31554
O     1.33573  -1.37234   1.01024
C    -0.47218  -0.14144   0.09257
N    -1.26777  -1.00610   0.69610
N    -1.93141  -1.75200   1.21707
C    -1.09097   0.93267  -0.68929
C    -2.59408   0.98239  -0.75672
O    -0.39085   1.76415  -1.27052
H     3.52593  -0.48804   0.42884
H     3.69956   0.22396  -1.19978
H     3.67944   1.28128   0.23753
H     1.36979   1.19890  -0.83121
H    -2.99175   0.05867  -1.20743
H    -3.02459   1.07063   0.25356
H    -2.89791   1.84519  -1.36201
