44
Generated by autodE on: 2022-06-20. E = -1050.759508 Ha. Imaginary frequency = -323.5 cm-1
C     0.02518   2.89101  -1.35482
C    -1.14061   2.52977  -0.78392
C    -2.26086   3.51436  -0.56561
C    -1.41394   1.16146  -0.30479
C    -0.83265  -0.00124  -0.90335
C    -1.55882  -1.25049  -0.88618
C    -1.36159  -2.31046  -1.71169
C    -2.17393  -3.56030  -1.54687
C    -0.33517  -2.35732  -2.80342
C     1.02358  -0.29968   0.45117
C     0.82984  -1.65946   1.02802
C     0.82259  -1.82371   2.53257
O     0.75905  -2.64671   0.30792
C     2.10911  -0.09904  -0.54751
O     2.69877   0.96647  -0.65999
O     2.35061  -1.15460  -1.31137
C     3.31585  -0.99082  -2.36081
N     0.84630   0.83175   1.22468
C    -0.41629   1.21374   1.63319
C    -1.31566   0.27967   2.24988
N    -2.11051  -0.44229   2.69598
C    -0.51619   2.55230   2.14351
N    -0.60265   3.65071   2.51267
H     0.18873   3.92514  -1.67025
H     0.84173   2.18805  -1.52455
H    -3.14764   3.22080  -1.15335
H    -1.96859   4.53213  -0.86030
H    -2.57553   3.53084   0.48973
H    -2.41514   1.01873   0.11010
H    -0.15183   0.17200  -1.73629
H    -2.32956  -1.34271  -0.11408
H    -2.70239  -3.81413  -2.48252
H    -1.51044  -4.41544  -1.32577
H    -2.91135  -3.47356  -0.73598
H     0.16694  -1.39845  -2.98057
H     0.43911  -3.10227  -2.55144
H    -0.79864  -2.69217  -3.74676
H     0.93949  -0.89054   3.09406
H    -0.10214  -2.33114   2.84303
H     1.66458  -2.49102   2.77757
H     3.34385  -1.94917  -2.89114
H     3.00404  -0.18650  -3.04213
H     4.30437  -0.75647  -1.94112
H     1.42218   1.61556   0.90064
