43
Generated by autodE on: 2022-06-06. E = -4123.947281 Ha
C     0.97050  -3.53702  -2.38136
C     1.16454  -2.69470  -1.15266
O     2.13227  -2.79782  -0.41605
N     0.14353  -1.79436  -0.87136
N    -0.81219  -1.51585  -1.87075
N    -0.73745  -0.10312  -1.96590
C    -0.01318   0.29084  -3.03550
N     0.54171   0.59993  -4.01051
C    -0.40046   0.37901  -0.61212
C     0.16452  -0.67807   0.03663
C     0.77296  -0.90818   1.40164
Br    0.07143  -2.67201   2.08754
C     2.33274  -0.92743   1.26609
C     3.14597  -1.78115   2.19344
O     2.82337  -0.11179   0.51252
C     0.50474   0.12277   2.51114
C    -0.92881   0.29879   3.00490
C    -1.90636   0.81590   1.95052
C    -1.33001   2.02877   1.21107
C    -0.84040   1.80083  -0.26075
C     0.33199   2.78551  -0.52522
F     1.36625   2.52079   0.28274
F     0.78715   2.70810  -1.78398
F    -0.03433   4.05514  -0.30664
C    -2.05411   2.19158  -1.17186
F    -2.55375   3.39083  -0.84266
F    -3.03712   1.29378  -1.02220
F    -1.75338   2.27017  -2.47623
H     1.77758  -4.27868  -2.41627
H    -0.00731  -4.03925  -2.37045
H     1.00756  -2.90198  -3.27944
H    -1.73818  -1.71530  -1.47448
H     3.02571  -2.83972   1.93041
H     4.20056  -1.49178   2.09889
H     2.81690  -1.65742   3.23570
H     1.13382  -0.16373   3.36540
H     0.91590   1.07694   2.15418
H    -0.88198   1.02925   3.82940
H    -1.29688  -0.64119   3.44012
H    -2.83892   1.11513   2.45053
H    -2.18884   0.01750   1.24931
H    -2.06944   2.83405   1.17559
H    -0.49671   2.44506   1.78818
