31
Generated by autodE on: 2022-06-06. E = -3712.837529 Ha
C     4.30093  -1.62077   0.38573
C     3.07943  -0.90648   0.88124
O     2.87328  -0.67870   2.05686
C     2.02359  -0.48773  -0.15833
Br    2.84574   1.16851  -1.01122
C     0.76139  -0.08053   0.41690
C    -0.43564   0.06886   0.50510
C    -1.85000  -0.05436   0.16718
C    -2.51408   1.34471   0.14950
F    -1.82831   2.16983  -0.65349
F    -2.54262   1.90511   1.36642
F    -3.77209   1.29049  -0.30422
C    -2.55529  -0.96483   1.20354
F    -2.41036  -0.50564   2.45355
F    -2.04240  -2.20238   1.17385
F    -3.86790  -1.06712   0.95728
C    -1.93010  -0.68065  -1.27068
C    -0.87635  -1.74668  -1.63183
C     0.51034  -1.26293  -2.14417
C     1.73410  -1.53940  -1.24946
H     5.08003  -1.59561   1.15831
H     4.67742  -1.20148  -0.55685
H     4.02683  -2.67217   0.19341
H    -2.93971  -1.10074  -1.38481
H    -1.85093   0.14895  -1.98731
H    -0.74573  -2.45115  -0.79819
H    -1.33689  -2.33444  -2.43992
H     0.47443  -0.19115  -2.39968
H     0.71041  -1.78258  -3.09275
H     2.63700  -1.65288  -1.86515
H     1.59191  -2.49715  -0.71897
