43
Generated by autodE on: 2022-06-06. E = -4123.858002 Ha. Imaginary frequency = -313.9 cm-1
C     1.27248  -3.17650  -2.83907
C     1.29097  -2.46083  -1.50830
O     2.31724  -2.28388  -0.87877
N     0.04584  -2.18258  -0.93615
N    -0.98756  -1.79902  -1.60509
N    -1.05824  -0.68113  -2.27999
C     0.03816  -0.27983  -2.92944
N     0.91292   0.12820  -3.58601
C    -0.38721   0.49307  -0.28584
C     0.22856  -0.41408   0.30025
C     0.95307  -0.78749   1.52756
Br    0.33168  -2.56147   2.20164
C     2.49553  -0.74397   1.28853
C     3.38510  -1.73096   1.97702
O     2.91732   0.19504   0.64560
C     0.68601   0.27392   2.62804
C    -0.74830   0.47592   3.12401
C    -1.81662   0.96188   2.12873
C    -1.39538   2.16203   1.26232
C    -1.00880   1.83313  -0.22871
C     0.02918   2.88059  -0.70999
F     1.12998   2.83580   0.05282
F     0.41687   2.67193  -1.97381
F    -0.46671   4.12360  -0.63590
C    -2.29214   1.91864  -1.10117
F    -3.12579   0.91780  -0.78603
F    -2.95109   3.06881  -0.89543
F    -2.04135   1.85482  -2.41468
H     0.32286  -3.09336  -3.38080
H     1.47007  -4.24223  -2.63953
H     2.09730  -2.78389  -3.44936
H    -1.89678  -2.07616  -1.21495
H     4.43065  -1.44110   1.81195
H     3.20759  -2.74031   1.58144
H     3.16699  -1.75785   3.05582
H     1.31919   0.01633   3.49116
H     1.08545   1.21518   2.22142
H    -1.10559  -0.45002   3.60033
H    -0.67091   1.22312   3.93140
H    -2.69300   1.26414   2.72139
H    -2.16534   0.13288   1.49778
H    -2.19308   2.91333   1.23022
H    -0.53215   2.65961   1.72176
