48
Generated by autodE on: 2022-06-01. E = -1148.417337 Ha
C     3.48572  -3.97019  -2.44421
N     2.72986  -2.76671  -2.15331
C     1.68423  -2.77993  -1.31451
O     1.30529  -3.79252  -0.71637
C     0.96190  -1.46977  -1.18000
N     0.57021  -0.88964  -2.29180
O    -0.12259   0.22257  -1.89951
C    -0.15103   0.31372  -0.53897
C     0.54973  -0.74454  -0.00283
C     0.89988  -1.09290   1.43884
C     2.34977  -1.61971   1.51679
C    -0.06107  -2.18544   1.94960
C     0.78791   0.13549   2.36596
C     1.62792   1.36881   1.97558
C     0.79409   2.61946   1.69082
C     0.10710   2.69177   0.32661
C    -0.87511   1.56187  -0.08070
C    -1.70771   2.07225  -1.33430
C    -2.92789   1.28710  -1.72278
O    -1.37287   3.08178  -1.90993
C    -1.94457   1.25518   0.97039
O    -2.41021   0.15908   1.19714
O    -2.37588   2.37451   1.54539
C    -3.44778   2.24648   2.49481
H     4.31362  -3.71489  -3.11588
H     2.85358  -4.73152  -2.92822
H     3.89652  -4.40671  -1.52088
H     2.96359  -1.90105  -2.62847
H     3.06058  -0.93892   1.02516
H     2.64354  -1.71399   2.57350
H     2.44950  -2.61210   1.06108
H     0.20923  -2.47210   2.97858
H    -0.00472  -3.07965   1.31403
H    -1.09840  -1.82313   1.95158
H     1.08291  -0.21109   3.36829
H    -0.26865   0.41447   2.47237
H     2.32716   1.60096   2.79344
H     2.26015   1.14841   1.09949
H     0.04659   2.74579   2.49156
H     1.44707   3.50613   1.74521
H    -0.45165   3.63516   0.27171
H     0.86685   2.73678  -0.46853
H    -2.81521   0.21063  -1.54460
H    -3.17323   1.48826  -2.77357
H    -3.76560   1.64223  -1.09742
H    -3.13298   1.61647   3.33861
H    -4.33068   1.80477   2.01170
H    -3.66661   3.26357   2.83817
