37
Generated by autodE on: 2022-06-01. E = -771.515562 Ha
C     2.09393  -2.04728  -3.08364
O     1.69779  -1.21311  -1.98251
C     0.54697  -0.55068  -2.10827
O    -0.17311  -0.62130  -3.07791
C     0.28496   0.31711  -0.86988
C     1.42198   1.38484  -0.86843
C     2.22900   1.57296   0.37441
O     1.59611   2.03054  -1.88464
C     0.22027  -0.48323   0.35115
C    -0.19430  -0.80880   1.44381
C    -1.01464  -0.84164   2.66001
C    -0.15986  -0.93515   3.93358
C    -2.00151  -2.02235   2.60609
C    -1.77712   0.52292   2.63355
C    -2.43426   0.94587   1.30231
C    -1.58899   1.75991   0.28033
C    -1.08689   1.04814  -0.99231
H     2.21556  -1.44347  -3.99425
H     1.34289  -2.83078  -3.25800
H     3.05075  -2.49535  -2.79292
H     2.95607   2.38276   0.23424
H     1.56337   1.79016   1.22419
H     2.74604   0.63000   0.61520
H     0.37635  -1.89570   3.97791
H    -0.80367  -0.85947   4.82400
H     0.58131  -0.12233   3.97336
H    -1.46174  -2.98095   2.56841
H    -2.63572  -2.01792   3.50653
H    -2.65335  -1.96278   1.72198
H    -1.07491   1.31265   2.94916
H    -2.55176   0.46338   3.41662
H    -2.87205   0.06629   0.80088
H    -3.29381   1.57776   1.57577
H    -0.74814   2.25177   0.79779
H    -2.22644   2.58275  -0.07858
H    -1.82693   0.30163  -1.31682
H    -0.98616   1.77326  -1.81351
