37
Generated by autodE on: 2022-10-21. E = -954.219395 Ha
C     4.00320   1.40081   1.23426
N     3.07082   0.97444   0.20833
C     1.77793   1.30695   0.24932
O     1.29897   2.06512   1.10531
C     0.90602   0.71035  -0.87744
O    -0.38071   1.31132  -0.83729
C    -1.43013   0.37157  -0.59457
C    -2.45240   0.51639  -1.72268
C    -2.10383   0.65693   0.77745
O    -3.20897   0.16925   1.05053
N    -1.41653   1.44194   1.60556
C    -1.90813   1.74987   2.93323
C    -0.68921  -0.97005  -0.56949
O    -1.22924  -2.15798  -0.36764
C    -2.61706  -2.45521  -0.60853
C     0.64808  -0.77251  -0.75815
C     1.68479  -1.76711  -1.00483
C     1.35212  -3.23287  -0.94457
O     2.83582  -1.40352  -1.28844
H     3.99499   2.49608   1.33696
H     5.01361   1.08056   0.95201
H     3.75549   0.96618   2.21707
H     3.33081   0.23541  -0.45040
H     1.39441   0.95307  -1.83766
H    -2.70343   1.58377  -1.81198
H    -2.01517   0.17512  -2.67167
H    -3.37386  -0.03942  -1.52180
H    -0.48896   1.78300   1.31770
H    -2.14672   0.83124   3.49228
H    -2.82153   2.36547   2.89387
H    -1.13283   2.30502   3.47585
H    -2.75013  -3.49110  -0.27517
H    -3.26288  -1.78370  -0.03260
H    -2.83272  -2.38464  -1.68397
H     0.99040  -3.50259   0.05958
H     2.25140  -3.81352  -1.18779
H     0.54158  -3.47794  -1.64751
