24
Generated by autodE on: 2022-10-21. E = -609.408762 Ha
C     4.63184  -0.47355  -0.41174
N     3.30420  -0.97950  -0.68352
C     2.19368  -0.32462  -0.25765
O     2.26288   0.73979   0.38986
C     0.93407  -0.95024  -0.61144
O    -0.13065  -0.30817  -0.18765
C    -1.39435  -0.58215  -0.32993
C    -1.82110  -1.78074  -1.07218
C    -2.30949   0.38287   0.29685
O    -3.54239   0.22938   0.23123
N    -1.73869   1.42827   0.93881
C    -2.53939   2.44109   1.59180
H     4.81905  -0.38876   0.67149
H     5.37001  -1.16242  -0.84050
H     4.78481   0.52470  -0.85459
H     3.19985  -1.83975  -1.21066
H     0.82038  -1.87293  -1.17980
H    -1.43583  -1.75554  -2.10980
H    -2.91479  -1.84303  -1.09151
H    -1.40910  -2.69723  -0.60755
H    -0.72680   1.50167   0.95352
H    -3.19189   2.96668   0.87511
H    -1.87103   3.17412   2.05968
H    -3.18419   2.00405   2.37165
