37
Generated by autodE on: 2022-10-21. E = -954.074739 Ha. Imaginary frequency = -331.2 cm-1
C     4.65049   1.01674  -0.30074
N     3.30224   1.05485  -0.82961
C     2.23161   1.13726  -0.00702
O     2.32907   1.31009   1.21867
C     0.93496   0.98040  -0.67295
O    -0.10105   1.10647   0.10789
C    -1.35161   0.83396  -0.24339
C    -1.78236   1.08170  -1.64822
C    -2.30167   0.91623   0.89373
O    -3.52510   0.82413   0.70615
N    -1.76051   1.04186   2.12212
C    -2.58445   1.05450   3.31257
C    -0.96337  -1.48067  -0.29105
O    -2.07965  -1.96844   0.17709
C    -3.18653  -2.11173  -0.74435
C     0.21101  -1.52015  -0.69174
C     1.56550  -1.72370  -1.10226
C     2.53828  -2.07190   0.00137
O     1.92423  -1.66001  -2.28319
H     4.81611   0.12903   0.33254
H     5.35967   0.99196  -1.13702
H     4.85324   1.90983   0.30900
H     3.14870   0.75930  -1.78961
H     0.80755   0.95876  -1.75494
H    -1.32499   0.38453  -2.36449
H    -1.48437   2.10685  -1.94136
H    -2.87301   0.99945  -1.71794
H    -0.75112   1.09895   2.20812
H    -3.31157   1.88181   3.28870
H    -3.14884   0.11374   3.42013
H    -1.93781   1.17952   4.18943
H    -3.95285  -2.67642  -0.20092
H    -3.57567  -1.12501  -1.02352
H    -2.85777  -2.66728  -1.63465
H     2.37211  -1.45932   0.89878
H     3.56796  -1.95164  -0.36150
H     2.37901  -3.12568   0.28647
