48
Generated by autodE on: 2022-06-02. E = -3572.727165 Ha
C    -4.51300   0.43913   0.77641
N    -3.40711  -0.09489   0.01285
C    -2.33684  -0.64693   0.59109
O    -2.24585  -0.84035   1.81098
C    -1.17671  -1.01028  -0.37145
C    -0.71927  -2.43991  -0.04754
N    -1.63789  -0.93776  -1.77211
C    -0.77529  -0.07298  -2.55223
C     0.12648  -0.86483  -3.52189
C     0.51293  -0.20176  -4.81010
O     0.45750  -2.00700  -3.25313
C     0.06337   0.66867  -1.52174
C    -0.10069   0.10674  -0.30084
C     0.49373   0.60415   0.99826
Br    1.27063  -0.94459   2.07386
C    -0.56327   1.36809   1.84149
C    -0.53789   1.31945   3.33888
O    -1.32681   2.09295   1.22841
C     1.68235   1.57882   0.88286
C     2.92160   1.06630   0.11884
C     3.26326   1.88862  -1.12349
C     2.32934   1.65798  -2.30900
C     0.82704   1.87143  -2.01794
H    -4.21499   1.34430   1.33203
H    -4.87772  -0.29965   1.50616
H    -5.33334   0.69795   0.09534
H    -3.35076  -0.00774  -0.99997
H     0.21131  -2.67384  -0.58092
H    -0.57378  -2.58614   1.02542
H    -1.50302  -3.13785  -0.38562
H    -1.66757  -1.87282  -2.17082
H    -1.34432   0.65824  -3.15417
H    -0.37432  -0.21840  -5.46764
H     1.33158  -0.74893  -5.29511
H     0.77774   0.85545  -4.66946
H    -0.89208   0.33334   3.66967
H     0.48257   1.44991   3.72694
H    -1.19894   2.10322   3.73103
H     1.29926   2.50472   0.43515
H     1.96622   1.85450   1.90803
H     3.78137   1.07510   0.80497
H     2.78017   0.01307  -0.16923
H     4.29152   1.64871  -1.44168
H     3.26483   2.96111  -0.85866
H     2.61921   2.33966  -3.12464
H     2.48066   0.63618  -2.69565
H     0.69144   2.71941  -1.33319
H     0.33927   2.18078  -2.95303
