23
Generated by autodE on: 2022-06-02. E = -534.192285 Ha
C    -4.19396   0.30108  -0.19458
N    -2.98319  -0.09910   0.49325
C    -1.76792   0.13148  -0.03736
O    -1.62472   0.69178  -1.14166
C    -0.58304  -0.30780   0.73528
C    -0.56628  -0.95971   2.07161
N     0.55107  -0.07348   0.10690
C     1.83632  -0.32299   0.43315
C     2.81923   0.08567  -0.51777
C     4.26935  -0.18418  -0.19610
O     2.50597   0.64915  -1.59145
H    -4.20888   1.38777  -0.37462
H    -4.28655  -0.20259  -1.17026
H    -5.05837   0.03331   0.42472
H    -3.06208  -0.57392   1.38434
H    -1.55941  -1.01677   2.53251
H    -0.16049  -1.98507   2.00081
H     0.09388  -0.40299   2.75987
H     0.43461   0.38891  -0.81091
H     2.06665  -0.81650   1.37399
H     4.82745   0.76639  -0.20889
H     4.70275  -0.82129  -0.98468
H     4.40742  -0.67218   0.77855
