48
Generated by autodE on: 2022-06-02. E = -3572.629232 Ha. Imaginary frequency = -270.3 cm-1
C    -4.27127   0.99350   0.05751
N    -3.27158   0.11152  -0.51434
C    -2.45692  -0.61950   0.27506
O    -2.56590  -0.59545   1.51119
C    -1.45139  -1.52309  -0.35281
C    -1.13279  -2.76256   0.42478
N    -1.14314  -1.53216  -1.65002
C    -1.08291  -0.52899  -2.56177
C    -0.36156  -0.87461  -3.77383
C    -0.41680   0.07842  -4.93812
O     0.28767  -1.93024  -3.84879
C     0.30352   0.84044  -1.27560
C     0.21697   0.38886  -0.11770
C     0.66318   0.66436   1.24617
Br    1.44479  -1.02365   2.08188
C    -0.47512   1.25259   2.12163
C    -0.60178   0.88547   3.56701
O    -1.17844   2.09707   1.59843
C     1.79896   1.71846   1.25421
C     3.02331   1.41995   0.36595
C     3.15579   2.24253  -0.93021
C     2.44144   1.75059  -2.19475
C     0.90400   1.82508  -2.19855
H    -4.75693   1.54845  -0.75458
H    -3.80235   1.70956   0.74791
H    -5.04076   0.43470   0.61574
H    -3.29187  -0.05456  -1.51285
H    -0.26464  -3.28405  -0.00157
H    -0.91577  -2.50597   1.46641
H    -1.99761  -3.45022   0.42177
H    -0.53324  -2.30618  -1.94319
H    -1.79099   0.29169  -2.55920
H    -0.84316  -0.45457  -5.80382
H     0.60537   0.38064  -5.21639
H    -1.02260   0.97014  -4.73220
H    -0.90721  -0.16662   3.65534
H     0.36631   0.98621   4.08067
H    -1.35272   1.53371   4.03664
H     1.32276   2.65775   0.92944
H     2.11014   1.87003   2.29928
H     3.91757   1.62711   0.97336
H     3.06880   0.34404   0.13372
H     4.22972   2.28643  -1.17720
H     2.85366   3.28580  -0.72718
H     2.79768   2.36296  -3.04012
H     2.74599   0.71261  -2.41430
H     0.58531   2.83030  -1.86665
H     0.54071   1.71675  -3.22672
