41
Generated by autodE on: 2022-06-02. E = -1458.638501 Ha
C     4.72501  -0.68750  -0.81972
N     3.41549  -0.06751  -0.71697
C     2.67132  -0.18475   0.38911
O     3.03265  -0.76655   1.41327
C     1.25944   0.36909   0.31979
C     0.75683   1.10405   1.59217
O     1.19668   1.18740   2.70138
O    -0.35403   1.77850   1.17566
C    -0.44984   1.50569  -0.27574
C    -1.21515   2.58780  -0.89117
N    -1.83528   3.42743  -1.39097
N     0.92120   1.38686  -0.69388
C     1.69333   2.63806  -0.65813
C    -1.02677   0.06371  -0.45645
C    -2.42155  -0.08958   0.18767
F    -3.34670   0.33654  -0.70359
F    -2.72002  -1.36163   0.48323
F    -2.61584   0.62513   1.29799
C    -1.08822  -0.40878  -1.98442
C    -1.62963  -1.83442  -1.96845
C    -0.61636  -2.58462  -1.51905
C     0.52931  -1.60764  -1.28225
O     0.27895  -0.63226  -2.28860
C     0.20102  -0.79032   0.03480
C     0.04121  -1.63237   1.31165
C     0.63867  -3.00581   1.36160
O    -0.53328  -1.14349   2.26589
H     4.64443  -1.78633  -0.85222
H     5.21156  -0.33652  -1.73745
H     5.34574  -0.41242   0.04472
H     2.99272   0.33324  -1.54921
H     2.72803   2.43043  -0.94954
H     1.69761   3.13106   0.32936
H     1.26753   3.33034  -1.39649
H    -1.54850   0.32053  -2.65834
H    -2.65302  -2.12434  -2.19963
H    -0.59749  -3.65150  -1.30544
H     1.54933  -1.99813  -1.33658
H     0.82639  -3.27328   2.40949
H     1.56164  -3.08171   0.77245
H    -0.09021  -3.72326   0.94995
