21
Generated by autodE on: 2022-06-02. E = -797.432615 Ha
C     3.13670  -0.98872   0.57900
C     2.07872   0.00727   0.20113
O     2.27940   1.21488   0.18719
C     0.75460  -0.54729  -0.16190
C    -0.43452   0.07339  -0.25791
C    -0.80148   1.50586  -0.03394
F    -0.37703   1.96729   1.15526
F    -2.14097   1.65879  -0.05457
F    -0.29983   2.31651  -0.98120
C    -1.46220  -1.05185  -0.52863
C    -1.56062  -1.88103   0.77344
C    -0.38549  -2.50798   0.86668
C     0.40942  -2.04780  -0.37624
O    -0.65148  -1.91659  -1.33625
H     2.75579  -1.67748   1.35106
H     3.38993  -1.60515  -0.29999
H     4.03494  -0.47106   0.93863
H    -2.39387  -0.76050  -1.02261
H    -2.40963  -1.86931   1.45537
H     0.00181  -3.16137   1.64719
H     1.21735  -2.69318  -0.73270
