20
Generated by autodE on: 2022-06-02. E = -661.180982 Ha
C     4.06456   0.61904  -0.12553
N     2.62744   0.75429  -0.02496
C     1.77525  -0.28775  -0.14481
O     2.13456  -1.45661  -0.35128
C     0.35851   0.07977  -0.00748
C    -0.18746   1.37015   0.23894
O     0.28436   2.48202   0.39728
O    -1.59247   1.16673   0.28558
C    -1.83117  -0.13296   0.08113
C    -3.13853  -0.65362   0.06709
N    -4.22479  -1.07378   0.05793
N    -0.69665  -0.80098  -0.09655
C    -0.62137  -2.24235  -0.34752
H     4.46078   1.21407  -0.96390
H     4.31319  -0.43515  -0.29397
H     4.55864   0.95607   0.79961
H     2.22849   1.67630   0.14201
H    -1.64016  -2.64468  -0.36775
H    -0.03918  -2.71380   0.45123
H    -0.12429  -2.41121  -1.30862
