29
Generated by autodE on: 2022-06-26. E = -870.463901 Ha
C    -3.63374  -2.75085  -0.74893
N    -2.94450  -1.48154  -0.65921
C    -1.64314  -1.41507  -0.34289
O    -0.92979  -2.40248  -0.11201
C    -1.05636  -0.05820  -0.26937
O     0.18460   0.09280   0.03366
C     1.33681  -0.42031   0.34412
C     1.63370  -1.79715   0.45481
N     2.08698  -2.86524   0.59116
C     2.35183   0.65065   0.56582
O     2.03233   1.84021   0.42783
N     3.58679   0.25469   0.91338
C     4.64724   1.21548   1.14972
C    -1.76541   1.23417  -0.50385
O    -2.97386   1.24524  -0.79924
N    -1.00718   2.33592  -0.37303
C    -1.52277   3.67503  -0.56338
H    -3.60499  -3.29007   0.21187
H    -3.17484  -3.40065  -1.51144
H    -4.67986  -2.56806  -1.02161
H    -3.42191  -0.59056  -0.81826
H     3.78956  -0.73477   1.01723
H     5.56270   0.67231   1.41152
H     4.83770   1.82422   0.25190
H     4.38863   1.89769   1.97486
H    -0.02146   2.22349  -0.12346
H    -1.41308   4.27054   0.35668
H    -2.58557   3.61955  -0.82538
H    -0.98222   4.18981  -1.37323
