64
Generated by autodE on: 2022-10-24. E = -1976.587086 Ha
C     1.49220  -2.32288   3.51103
O     1.37282  -1.94157   2.13193
C     1.51747  -0.65158   1.84549
O     1.80267   0.17894   2.68580
C     1.32659  -0.35751   0.32745
C     2.63634  -0.73062  -0.38011
C     2.62028  -1.15423  -1.71639
C     3.81366  -1.41389  -2.39447
C     5.04310  -1.24996  -1.74920
C     5.06763  -0.82108  -0.41936
C     3.87330  -0.56269   0.25918
C     1.00070   1.15609   0.17992
C     1.55003   1.86629  -1.09012
O     0.62699   1.44841  -2.10653
C    -0.54253   1.96295  -1.46262
C    -0.13733   3.40402  -1.16227
O    -1.09808   4.32709  -1.06249
C    -0.75552   5.61570  -0.54296
C     1.19162   3.34201  -0.94206
Cl    2.33624   4.48822  -0.32383
C    -0.53177   1.23691  -0.08054
C    -1.05751  -0.23115  -0.05261
C    -1.66936  -0.59889   1.31728
C    -2.43099  -1.77576   1.43752
C    -2.88522  -2.22232   2.67956
C    -2.58946  -1.49863   3.83932
C    -1.84440  -0.32263   3.73583
C    -1.39274   0.12241   2.48827
C    -2.06813  -0.43013  -1.18409
C    -1.66663  -0.87777  -2.44944
C    -2.57868  -0.94401  -3.50714
C    -3.90619  -0.54970  -3.31979
C    -4.31256  -0.08579  -2.06440
C    -3.40092  -0.02924  -1.00748
N     0.17163  -1.02166  -0.26864
C     0.07789  -2.46861  -0.27728
H     1.33032  -3.40640   3.53768
H     2.49294  -2.07556   3.89259
H     0.72858  -1.80943   4.11238
H     1.66514  -1.26741  -2.22716
H     3.78072  -1.74431  -3.43547
H     5.97611  -1.45396  -2.27978
H     6.02110  -0.68375   0.09621
H     3.91521  -0.21332   1.29238
H     1.33012   1.68897   1.07567
H     2.58624   1.65028  -1.36500
H    -1.43959   1.84899  -2.07660
H    -1.68336   6.20122  -0.53872
H    -0.36625   5.53088   0.48258
H    -0.01013   6.11034  -1.18335
H    -1.07716   1.85110   0.64136
H    -2.68074  -2.34832   0.54363
H    -3.47449  -3.14055   2.74063
H    -2.94230  -1.84626   4.81308
H    -1.60976   0.25999   4.62988
H    -0.81207   1.04242   2.45084
H    -0.62639  -1.15751  -2.60996
H    -2.24559  -1.30104  -4.48477
H    -4.61892  -0.59966  -4.14644
H    -5.34534   0.23417  -1.90577
H    -3.72950   0.33962  -0.03415
H    -0.26610  -2.90827   0.67282
H    -0.61485  -2.79087  -1.06824
H     1.06274  -2.89831  -0.50090
