47
Generated by autodE on: 2022-10-24. E = -1094.785838 Ha
C     3.80535  -2.58137  -2.20304
O     3.15252  -1.79112  -1.21481
C     1.80714  -1.99736  -1.06320
O     1.23750  -2.89012  -1.71275
C     1.19455  -1.11694  -0.12878
C     1.76540   0.14546   0.35869
C     1.45416   0.60959   1.65775
C     1.92682   1.83482   2.12418
C     2.73397   2.64034   1.31116
C     3.05378   2.19747   0.02383
C     2.57305   0.97478  -0.44876
N    -0.15023  -1.39552   0.22675
C    -0.44092  -2.72555   0.78526
C    -1.07893  -0.44778   0.14702
C    -2.28995  -0.46020   0.97647
C    -2.23861  -0.80462   2.34214
C    -3.39312  -0.76065   3.12275
C    -4.61367  -0.38074   2.55449
C    -4.67271  -0.02631   1.20150
C    -3.51928  -0.05179   0.42017
C    -0.85130   0.70160  -0.75111
C    -1.02960   2.01265  -0.28456
C    -0.79524   3.09918  -1.13256
C    -0.40405   2.88220  -2.45508
C    -0.24403   1.57261  -2.93157
C    -0.45484   0.48835  -2.08524
H     3.35857  -2.43005  -3.19814
H     4.85231  -2.25183  -2.21532
H     3.75867  -3.65330  -1.95532
H     0.82146  -0.00134   2.30625
H     1.66710   2.16240   3.13423
H     3.10398   3.60146   1.67556
H     3.67045   2.81955  -0.63032
H     2.80595   0.66412  -1.46704
H    -1.51677  -2.92768   0.75375
H     0.08409  -3.46202   0.16865
H    -0.07065  -2.78853   1.81697
H    -1.28642  -1.07756   2.79802
H    -3.33811  -1.01757   4.18290
H    -5.51732  -0.35214   3.16759
H    -5.62272   0.27547   0.75502
H    -3.56449   0.23028  -0.63311
H    -1.32954   2.17886   0.75130
H    -0.92020   4.11685  -0.75620
H    -0.22489   3.73037  -3.11983
H     0.04957   1.40026  -3.96950
H    -0.31298  -0.53151  -2.44742
