17
Generated by autodE on: 2022-10-24. E = -881.716877 Ha
C     2.81288   0.15274  -0.50834
O     1.68717  -0.42861  -1.17348
C     0.50768  -0.41671  -0.54802
C     0.01841   0.02461   0.62647
Cl    0.71460   0.91677   1.93758
C    -1.50698  -0.21265   0.52448
C    -2.06416   0.75913  -0.54407
C    -1.57406   0.30831  -1.70266
C    -0.73522  -0.93138  -1.31402
O    -1.51477  -1.44563  -0.22068
H     3.66809   0.02520  -1.18370
H     3.01271  -0.36363   0.44282
H     2.64523   1.22373  -0.32072
H    -2.04510  -0.29033   1.47549
H    -2.67090   1.63997  -0.33670
H    -1.66348   0.71542  -2.70901
H    -0.53419  -1.68121  -2.08712
