36
Generated by autodE on: 2022-06-17. E = -936.928468 Ha
C     3.48667  -0.80546  -0.28161
C     2.41767  -0.66338   0.75096
O     2.57123  -0.89949   1.93355
C     1.02961  -0.20499   0.30238
O     1.04872   0.19751  -1.12182
C    -0.23023   0.08861  -1.55188
O    -0.56868   0.33227  -2.67927
C    -1.02598  -0.36272  -0.31000
C    -2.41746  -0.90597  -0.58067
C    -2.92572  -2.08384   0.19756
O    -3.10874  -0.32661  -1.40028
N    -0.02149  -1.19875   0.37926
C     0.30259  -2.48402  -0.25037
C    -1.07671   0.93595   0.63060
C    -2.00429   0.71287   1.82630
C    -1.51730   2.18440  -0.13792
C     0.42476   0.96194   1.08660
C     1.17706   2.25400   0.94965
O     2.30563   2.32662   0.50789
H     4.40566  -1.18290   0.18381
H     3.66876   0.17286  -0.75242
H     3.14813  -1.48610  -1.07895
H    -2.43544  -2.19187   1.17242
H    -2.72718  -2.99736  -0.38838
H    -4.01406  -1.99066   0.31403
H     0.55226  -2.40453  -1.32378
H     1.15649  -2.93162   0.27589
H    -0.54265  -3.17157  -0.14079
H    -1.88838   1.55218   2.52868
H    -1.76277  -0.21537   2.36088
H    -3.05885   0.68111   1.51283
H    -0.80073   2.48236  -0.91768
H    -1.62834   3.02977   0.55606
H    -2.48985   2.00866  -0.61882
H     0.48600   0.70793   2.15764
H     0.65756   3.15724   1.33989
