58
Generated by autodE on: 2022-06-13. E = -1850.987712 Ha
C    -3.69997   2.94599   2.43771
N    -3.80505   2.42397   1.08871
C    -3.23350   1.26589   0.74772
O    -2.50765   0.60572   1.49470
C    -3.48394   0.77215  -0.67468
C    -4.29107   1.65911  -1.65853
O    -5.08088   2.54335  -1.45164
O    -3.93185   1.25295  -2.89385
C    -2.94083   0.19965  -2.66865
C    -2.00977   0.02285  -3.85245
O    -1.28510  -0.94613  -3.93987
O    -2.04021   1.03787  -4.68974
C    -1.19425   0.94051  -5.85210
C    -3.75420  -1.01951  -2.13697
C    -4.10483  -0.65618  -0.88528
C    -4.99318  -1.41170   0.08293
F    -5.98890  -2.07277  -0.65010
C    -5.85158  -0.50027   1.00214
F    -6.30526   0.57449   0.33455
F    -6.91374  -1.17288   1.45246
F    -5.17659  -0.06561   2.07302
C    -4.24896  -2.46996   0.90098
C    -3.85158  -3.72043   0.10483
C    -2.73073  -3.55341  -0.93656
C    -3.09290  -3.44433  -2.42327
C    -4.01902  -2.29369  -2.90991
C    -5.53869  -2.73107  -2.92568
C    -6.56883  -1.68551  -3.26489
O    -5.82644  -3.90431  -2.82366
C    -3.86836  -2.06388  -4.44267
C    -3.48573  -3.22453  -5.30621
O    -4.13642  -0.97156  -4.91312
N    -2.25519   0.73608  -1.49927
C    -1.09281   0.01655  -0.98852
H    -4.13409   3.95258   2.46412
H    -4.23855   2.30408   3.15405
H    -2.64737   3.00047   2.75038
H    -4.46202   2.84703   0.43479
H    -0.14188   0.85176  -5.54972
H    -1.35706   1.86472  -6.41668
H    -1.48744   0.06608  -6.44956
H    -3.36573  -1.99220   1.34852
H    -4.91092  -2.77977   1.72401
H    -4.74676  -4.16469  -0.35503
H    -3.51239  -4.44624   0.85923
H    -2.09142  -2.70868  -0.64562
H    -2.07890  -4.43911  -0.87564
H    -2.14234  -3.34353  -2.96321
H    -3.55314  -4.38529  -2.75212
H    -6.74844  -1.73641  -4.35110
H    -7.50936  -1.93106  -2.75574
H    -6.25150  -0.66634  -3.01643
H    -2.40939  -3.42270  -5.18086
H    -3.68510  -2.97481  -6.35571
H    -4.02242  -4.13848  -5.01550
H    -0.34764  -0.05876  -1.78929
H    -1.32584  -0.99383  -0.62055
H    -0.65330   0.59308  -0.16816
