25
Generated by autodE on: 2022-06-13. E = -796.891360 Ha
C     4.77361   0.26361   0.01947
N     3.35573   0.53437   0.12737
C     2.43619  -0.40488  -0.18469
O     2.75068  -1.53888  -0.58041
C     1.04545   0.03234  -0.01403
C     0.59631   1.30162   0.43422
O     1.14959   2.33377   0.78175
O    -0.81436   1.20454   0.42741
C    -1.16141  -0.01682   0.00924
C    -2.58315  -0.39128  -0.09276
O    -2.99192  -1.47086  -0.47482
O    -3.35403   0.62068   0.29414
C    -4.77385   0.39738   0.24947
N    -0.07847  -0.73515  -0.26140
C    -0.06196  -2.12196  -0.74278
H     5.07723  -0.56852   0.67535
H     5.05561  -0.00350  -1.01182
H     5.32833   1.16293   0.31349
H     3.03198   1.44421   0.44944
H    -5.04742  -0.44181   0.90457
H    -5.09205   0.18100  -0.78025
H    -5.23246   1.32652   0.60488
H     0.46446  -2.15231  -1.70268
H    -1.09265  -2.46269  -0.85044
H     0.48110  -2.73708  -0.01715
