58
Generated by autodE on: 2022-06-13. E = -1850.937282 Ha. Imaginary frequency = -295.6 cm-1
C    -3.67583   2.98057   2.95321
N    -3.69524   2.69805   1.53289
C    -2.82319   1.83418   0.98186
O    -1.86866   1.34137   1.59254
C    -3.09912   1.52650  -0.44595
C    -4.20334   2.05237  -1.23097
O    -5.16873   2.73140  -0.94628
O    -3.93931   1.66168  -2.52792
C    -2.83746   0.83928  -2.50730
C    -2.13684   0.71274  -3.82434
O    -0.94299   0.81884  -3.98833
O    -3.02326   0.47241  -4.77974
C    -2.52593   0.34050  -6.12419
C    -3.89126  -0.94729  -1.95861
C    -4.30708  -0.72634  -0.79764
C    -5.13397  -1.33278   0.26674
F    -6.37691  -1.70068  -0.29382
C    -5.54746  -0.36678   1.39388
F    -6.49432  -0.91505   2.16709
F    -6.03985   0.78218   0.91507
F    -4.50134  -0.07852   2.18489
C    -4.46337  -2.57946   0.87036
C    -4.54659  -3.85905   0.03272
C    -3.83062  -3.89268  -1.32393
C    -4.60218  -3.25945  -2.49993
C    -3.96993  -1.93625  -3.07701
C    -4.97584  -1.49311  -4.17606
C    -6.06565  -0.54500  -3.76667
O    -4.92615  -1.96909  -5.29354
C    -2.56549  -2.30587  -3.59274
C    -2.39892  -3.18365  -4.79659
O    -1.59265  -1.92164  -2.96441
N    -2.18386   1.04248  -1.32589
C    -0.95053   0.35263  -0.95227
H    -2.66935   3.28476   3.27492
H    -3.97117   2.09597   3.54195
H    -4.37776   3.79688   3.16280
H    -4.50209   2.98092   0.97802
H    -2.12679   1.30457  -6.46850
H    -1.74056  -0.42576  -6.16190
H    -3.38822   0.04002  -6.72822
H    -3.41584  -2.31799   1.08018
H    -4.94839  -2.78596   1.83624
H    -4.11116  -4.64897   0.66500
H    -5.60534  -4.13189  -0.10474
H    -2.83082  -3.44212  -1.22065
H    -3.65514  -4.94940  -1.57583
H    -4.68251  -3.96617  -3.33651
H    -5.62917  -3.01687  -2.19510
H    -6.84182  -0.53081  -4.54247
H    -6.48999  -0.82290  -2.79179
H    -5.63927   0.46220  -3.65181
H    -1.35676  -3.52631  -4.83663
H    -3.08699  -4.03927  -4.78049
H    -2.63556  -2.60539  -5.70101
H    -1.20863  -0.56448  -0.40462
H    -0.36278   1.00942  -0.30513
H    -0.39600   0.11073  -1.85909
