44
Generated by autodE on: 2022-06-01. E = -1385.841571 Ha
C     5.10425   0.75447   0.66230
N     3.96420  -0.01688   0.20343
C     2.81353  -0.04108   0.89146
O     2.66248   0.56299   1.96517
C     1.69099  -0.85420   0.35144
C     1.15423  -1.00804  -0.87328
C     1.61472  -0.43758  -2.17809
F     1.51058   0.90249  -2.23647
F     0.90918  -0.93578  -3.20976
F     2.91188  -0.73347  -2.42847
C    -0.07765  -1.90085  -0.68428
O     0.35407  -2.70605   0.42600
C     0.74295  -1.61739   1.27421
C    -0.60509  -0.82721   1.38828
C    -0.50683   0.71790   1.41262
C    -1.39618   1.32209   2.43325
N    -2.08354   1.86160   3.19804
N    -0.83418   1.12627   0.05168
C    -0.93547   2.54336  -0.21829
C    -1.80462   0.17492  -0.51832
C    -1.92638   0.26831  -2.03631
C    -3.20065   0.50010   0.07026
O    -3.89159   1.41687  -0.32972
O    -3.53141  -0.24978   1.12287
C    -4.72890   0.10672   1.83067
C    -1.26367  -1.15570   0.02224
H     5.92209   0.63648  -0.05820
H     4.85096   1.82280   0.74546
H     5.44545   0.40842   1.65059
H     4.03881  -0.54738  -0.65731
H    -0.36244  -2.51471  -1.54401
H     1.16597  -1.96721   2.22051
H    -1.17855  -1.21348   2.23638
H     0.50982   1.05408   1.67429
H    -1.80588   3.03166   0.26354
H    -1.00091   2.71347  -1.30161
H    -0.02296   3.04023   0.14600
H    -2.43424   1.19678  -2.32672
H    -2.52763  -0.57575  -2.40556
H    -0.94998   0.24423  -2.52684
H    -5.59859   0.05698   1.16070
H    -4.82792  -0.62437   2.64096
H    -4.63385   1.12098   2.24283
H    -2.06348  -1.89649   0.11805
