23
Generated by autodE on: 2022-06-01. E = -852.834021 Ha
C     0.46870  -2.73484  -1.28838
N     1.58399  -2.18532  -0.53977
C     1.75961  -0.92551  -0.11325
O     2.76078  -0.55723   0.51952
C     0.75330   0.11927  -0.43383
C    -0.52375   0.32278  -0.08919
C    -1.48206  -0.52599   0.66038
F    -2.02671   0.16709   1.68245
F    -0.91264  -1.62643   1.18318
F    -2.50492  -0.94063  -0.11481
C    -0.80856   1.81006  -0.43304
C     0.00435   2.64846   0.57815
C     1.28065   2.45048   0.23573
C     1.21937   1.50113  -0.97943
O     0.00613   1.93685  -1.60613
H    -0.19152  -3.33943  -0.64783
H     0.84827  -3.37347  -2.09900
H    -0.12388  -1.92797  -1.73499
H     2.32370  -2.82790  -0.26181
H    -1.85355   2.08405  -0.61027
H    -0.42202   3.20566   1.41103
H     2.19838   2.79875   0.70684
H     2.07131   1.48746  -1.66627
