21
Generated by autodE on: 2022-06-01. E = -532.914979 Ha
C     3.76073  -0.25779   0.09276
O     2.49804  -0.88740  -0.13279
C     1.40176  -0.11156   0.02991
O     1.50973   1.07065   0.35675
C     0.16461  -0.83375  -0.22079
C     0.18982  -2.28244  -0.61372
N    -1.02971  -0.19890  -0.09812
C    -2.23273  -1.01861  -0.36637
C    -1.22602   1.09589   0.23939
C    -2.49892   1.66790   0.34345
N    -3.52562   2.22337   0.45269
H     3.83472   0.11591   1.12503
H     3.91143   0.58042  -0.60404
H     4.51875  -1.03093  -0.08133
H    -0.32687  -2.92293   0.12054
H    -0.28941  -2.45722  -1.59104
H     1.22493  -2.62610  -0.68471
H    -3.13022  -0.41333  -0.22039
H    -2.25333  -1.87178   0.32088
H    -2.20216  -1.38325  -1.39943
H    -0.35004   1.70593   0.43527
