24
Generated by autodE on: 2022-06-11. E = -664.323807 Ha
C     4.84957   0.86450  -0.37844
N     3.82435  -0.07245   0.02879
C     2.49828   0.17897  -0.09098
O     2.04052   1.23613  -0.55488
C     1.59329  -0.88929   0.36916
C     2.00189  -2.12383   0.89871
N     2.38309  -3.14180   1.33481
N     0.28008  -0.62272   0.25697
C    -0.81011  -0.24634   0.09673
C    -2.12222   0.23952  -0.09887
C    -2.28705   1.54730  -0.60682
C    -3.57467   2.03774  -0.80406
C    -4.68880   1.24587  -0.50129
C    -4.51787  -0.04910   0.00204
C    -3.24060  -0.56437   0.20663
H     5.49926   1.13713   0.46870
H     4.36741   1.77352  -0.75638
H     5.48269   0.44445  -1.17684
H     4.11956  -0.96162   0.41928
H    -1.40797   2.15115  -0.83688
H    -3.70963   3.04758  -1.19675
H    -5.69511   1.63981  -0.65817
H    -5.38835  -0.66473   0.23753
H    -3.09542  -1.57241   0.59724
