13
Generated by autodE on: 2022-06-11. E = -767.141594 Ha
Cl    1.90649  -1.03212  -0.79643
C     0.66512  -0.07210  -0.08679
C     0.48374   1.25055  -0.09525
C    -0.89011   1.42539   0.59472
C    -1.96785   0.85998  -0.36300
C    -1.77330  -0.46149  -0.36122
C    -0.58189  -0.67964   0.60197
O    -0.83290   0.35557   1.56571
H     1.08173   2.03738  -0.55045
H    -1.08909   2.39576   1.06222
H    -2.67073   1.46140  -0.93864
H    -2.26960  -1.24525  -0.93209
H    -0.45946  -1.66747   1.05843
