37
Generated by autodE on: 2022-06-11. E = -1431.466144 Ha. Imaginary frequency = -362.5 cm-1
C    -3.20754  -1.85637   2.42871
N    -2.40657  -1.66429   1.23573
C    -2.85074  -0.92733   0.19664
O    -4.00285  -0.47582   0.12613
C    -1.88200  -0.63710  -0.88722
C    -2.37999  -0.11049  -2.10179
N    -2.77903   0.36092  -3.09219
N    -0.62642  -1.11333  -0.85923
C     0.49010  -0.92186  -0.46798
C     1.82372  -1.39882  -0.28844
C     2.83285  -1.00588  -1.19052
C     4.14095  -1.43511  -0.97681
C     4.45118  -2.22990   0.13279
C     3.44808  -2.60515   1.03386
C     2.13233  -2.19286   0.83436
C     0.20227   1.17014   0.59262
Cl    0.71233   0.71567   2.19858
C     1.13054   1.98367  -0.34190
C     0.94944   3.47585   0.01703
C    -0.29153   3.77556  -0.37938
C    -0.85430   2.46199  -0.96913
O     0.34933   1.89946  -1.54220
C    -1.07116   1.51457   0.22435
H    -3.18933  -0.96954   3.08547
H    -2.81652  -2.71499   2.98937
H    -4.25132  -2.05800   2.15314
H    -1.42721  -1.92365   1.27650
H     2.57942  -0.37786  -2.04583
H     4.92461  -1.14329  -1.67892
H     5.48025  -2.55668   0.29706
H     3.69236  -3.22462   1.89929
H     1.34229  -2.47657   1.53094
H     2.15141   1.61172  -0.47458
H     1.68861   4.09218   0.52717
H    -0.85310   4.70314  -0.27254
H    -1.65866   2.53935  -1.70744
H    -1.96874   1.50186   0.83802
