57
Generated by autodE on: 2022-06-07. E = -1454.337500 Ha
C     3.61115  -0.03129  -1.91918
O     2.61883   0.18269  -0.90443
C     2.05615  -0.89002  -0.37176
O     2.39053  -2.02559  -0.62368
C     0.95149  -0.54995   0.66941
C     1.60647   0.36222   1.71341
C     1.92873  -0.14026   2.98101
C     2.55669   0.67315   3.92974
C     2.87441   1.99729   3.62355
C     2.56563   2.50129   2.35581
C     1.94435   1.69028   1.40589
O     0.63338  -1.77953   1.31976
C    -0.50143  -2.40794   0.78713
C    -0.10975  -3.42919  -0.23199
N     0.22200  -4.25014  -0.97865
C    -1.12010  -3.18003   1.88821
N    -1.57172  -3.79448   2.75964
C    -1.43186  -1.26466   0.21786
C    -2.33651  -1.86441  -0.87085
C    -2.87368  -1.10265  -2.05038
O    -2.68345  -3.02193  -0.69000
C    -2.41985  -0.73543   1.33545
C    -3.40701   0.28729   0.74386
C    -2.47928   1.47639   0.38104
C    -1.10194   1.04156   0.94124
C    -1.52519   0.19962   2.15594
C    -0.43386  -0.02470   0.01379
C    -0.17655   0.43657  -1.41602
C     0.07990  -0.48211  -2.44668
C     0.42898  -0.05366  -3.72802
C     0.53369   1.31100  -4.00917
C     0.28506   2.23708  -2.99365
C    -0.06499   1.80319  -1.71236
H     4.47576  -0.56488  -1.49998
H     3.18259  -0.61047  -2.74886
H     3.90596   0.96615  -2.26299
H     1.68494  -1.17089   3.23328
H     2.79670   0.26276   4.91331
H     3.36238   2.63370   4.36540
H     2.81048   3.53480   2.10051
H     1.72026   2.09794   0.42211
H    -3.94889  -1.31947  -2.13032
H    -2.69728  -0.02487  -2.02352
H    -2.39072  -1.50865  -2.95255
H    -2.91263  -1.56147   1.85902
H    -4.00957  -0.08261  -0.09301
H    -4.11245   0.56405   1.54009
H    -2.79777   2.40262   0.87937
H    -2.45573   1.68072  -0.69622
H    -0.44660   1.88710   1.15649
H    -0.70887  -0.29676   2.68803
H    -2.10963   0.78205   2.88243
H     0.03232  -1.55483  -2.26117
H     0.62347  -0.79363  -4.50746
H     0.80983   1.64917  -5.01045
H     0.36750   3.30778  -3.19436
H    -0.23249   2.54790  -0.93525
