25
Generated by autodE on: 2022-06-07. E = -797.523776 Ha
C    -2.52509  -2.43261   0.98960
O    -1.54207  -1.37744   0.94165
C    -0.77000  -1.32362  -0.13030
O    -0.75891  -2.11426  -1.04464
C     0.15840  -0.13443  -0.05304
O    -0.30466   1.05588   0.10366
C    -1.56271   1.58233   0.10818
C    -1.61170   2.95204   0.40925
N    -1.67317   4.09155   0.66655
C    -2.69709   0.86379  -0.28930
N    -3.65549   0.29219  -0.64247
C     1.58865  -0.28181  -0.13671
C     2.41976   0.86529  -0.14307
C     3.79912   0.72422  -0.20850
C     4.37565  -0.55284  -0.27025
C     3.56357  -1.69222  -0.26486
C     2.17964  -1.56662  -0.19861
H    -3.06658  -2.28962   1.93040
H    -3.20673  -2.34350   0.13328
H    -2.02303  -3.40946   0.97413
H     1.96913   1.85728  -0.10186
H     4.43454   1.61198  -0.21609
H     5.46139  -0.65791  -0.32439
H     4.01283  -2.68600  -0.31126
H     1.55802  -2.46178  -0.19392
