25
Generated by autodE on: 2022-07-27. E = -797.524843 Ha
C     1.16495   0.48982  -3.43501
O     0.54859   0.68372  -2.14279
C     0.79576  -0.22999  -1.22761
O     1.50578  -1.20218  -1.35050
C     0.10246   0.04913   0.08636
O    -0.73880  -0.80905   0.54564
C    -1.32638  -1.89716  -0.04713
C    -1.29547  -2.10064  -1.43069
N    -1.28099  -2.25288  -2.59170
C    -2.08010  -2.69478   0.82497
N    -2.70637  -3.37740   1.53982
C     0.45193   1.16486   0.92305
C    -0.18875   1.35015   2.17271
C     0.16436   2.42288   2.97963
C     1.15321   3.32552   2.56103
C     1.79065   3.15150   1.32744
C     1.44685   2.08183   0.50754
H     0.85016   1.34357  -4.04386
H     2.25799   0.46879  -3.32887
H     0.80889  -0.45324  -3.87183
H    -0.96046   0.64902   2.49185
H    -0.33291   2.56440   3.94119
H     1.42478   4.16888   3.19962
H     2.55993   3.85479   1.00340
H     1.94812   1.95585  -0.45259
