44
Generated by autodE on: 2022-06-02. E = -1386.559894 Ha
C    -0.82196  -3.34801   1.50793
C    -1.69284  -2.97806   0.34852
O    -2.80054  -3.43752   0.16207
C    -1.14887  -1.91542  -0.65410
C    -1.76386  -2.19832  -1.97729
N    -2.16856  -2.41560  -3.04248
C    -1.56528  -0.46985  -0.21809
C    -1.78812  -0.23274   1.31324
C    -2.28078   1.20332   1.42611
C    -1.19193   1.95104   1.21948
C    -1.08116   3.42316   1.06986
F    -2.24371   4.05223   1.29912
F    -0.16753   3.94635   1.91289
F    -0.68072   3.75680  -0.17880
C    -0.05099   0.96908   0.96744
O    -0.44238  -0.12765   1.79806
C    -0.30492   0.41033  -0.46512
C     0.79119  -0.55503  -1.02438
C     0.84653  -0.35703  -2.50144
N     0.85315  -0.25858  -3.65752
C     2.17441  -0.29785  -0.42191
C     2.58274  -1.00880   0.71305
C     3.80354  -0.71136   1.32408
C     4.62141   0.29983   0.81122
C     4.21424   1.01104  -0.32156
C     2.99642   0.71176  -0.93743
N     0.29781  -1.89547  -0.71947
C     0.95379  -3.00947  -1.38765
H    -1.42784  -3.86287   2.26457
H    -0.03495  -4.03391   1.15343
H    -0.31277  -2.47219   1.92911
H    -2.44478  -0.15602  -0.78777
H    -2.36125  -0.98988   1.85653
H    -3.31653   1.51573   1.55217
H     0.96374   1.31048   1.18659
H    -0.47317   1.22987  -1.16985
H     1.93950  -1.79059   1.11621
H     4.11502  -1.27343   2.20756
H     5.57472   0.53181   1.29167
H     4.84677   1.80210  -0.73064
H     2.68525   1.27448  -1.82042
H     0.79511  -3.00496  -2.48267
H     2.03380  -2.96984  -1.19280
H     0.57127  -3.96000  -0.99304
