28
Generated by autodE on: 2022-06-02. E = -741.767442 Ha
C    -3.89683  -0.46883  -1.11236
C    -2.42935  -0.48972  -0.75296
O    -1.72615  -1.47566  -1.00446
C    -1.89102   0.71585  -0.14284
C    -2.70978   1.85333   0.02185
N    -3.41740   2.77319   0.16214
N    -0.51634   0.86152   0.03860
C     0.08589   2.16751  -0.28634
C     0.23499  -0.16317   0.44370
C    -0.38610  -1.19058   1.21745
N    -0.80461  -2.01914   1.91902
C     1.67824  -0.28231   0.20810
C     2.49786  -0.86586   1.19564
C     3.86644  -1.00537   0.97779
C     4.43196  -0.58449  -0.23084
C     3.62077  -0.02759  -1.22587
C     2.25234   0.12308  -1.01417
H    -4.50712  -0.27287  -0.21647
H    -4.11581   0.32881  -1.83921
H    -4.17410  -1.44046  -1.54001
H     0.09617   2.31747  -1.37351
H     1.09644   2.22672   0.12528
H    -0.53625   2.94393   0.17671
H     2.05911  -1.19660   2.13889
H     4.49496  -1.44613   1.75427
H     5.50449  -0.70010  -0.40197
H     4.05567   0.28212  -2.17839
H     1.62424   0.52970  -1.80718
