28
Generated by autodE on: 2022-07-27. E = -741.767429 Ha
C    -3.23486  -2.48218  -0.10394
C    -1.92427  -1.73278  -0.04022
O    -0.87243  -2.31274   0.25451
C    -1.97969  -0.30277  -0.30012
C    -3.22268   0.32705  -0.52275
N    -4.26524   0.81673  -0.72218
N    -0.86566   0.50228  -0.06893
C    -1.08491   1.80868   0.57824
C     0.36189   0.08441  -0.38214
C     0.50028  -0.87327  -1.43252
N     0.69264  -1.58839  -2.33004
C     1.59384   0.58784   0.23528
C     1.64701   0.88376   1.61287
C     2.83437   1.33478   2.18451
C     3.98107   1.49220   1.39810
C     3.94116   1.18210   0.03434
C     2.76023   0.72371  -0.54477
H    -3.68968  -2.37099  -1.10107
H    -3.95422  -2.08795   0.63058
H    -3.04927  -3.54452   0.09812
H    -1.91104   2.30473   0.05283
H    -0.18638   2.42442   0.49278
H    -1.36337   1.66579   1.63015
H     0.76816   0.73449   2.24053
H     2.86783   1.55481   3.25353
H     4.90950   1.84679   1.85108
H     4.83553   1.29682  -0.58139
H     2.73374   0.48207  -1.60890
