16
Generated by autodE on: 2022-06-02. E = -644.713696 Ha
F     1.81395   0.68585   1.04508
C     1.52232  -0.08924  -0.02535
F     2.10527   0.50411  -1.08960
F     2.13851  -1.26899   0.15739
C     0.06001  -0.22871  -0.19707
C    -0.71202  -1.31227  -0.09293
C    -2.15351  -0.76494  -0.21296
C    -2.43321   0.04240   1.07698
C    -1.65808   1.12586   0.97900
C    -0.91823   0.96162  -0.36849
O    -1.93588   0.31120  -1.14738
H    -0.43353  -2.34592   0.10653
H    -2.92511  -1.46277  -0.55396
H    -3.08370  -0.28157   1.88849
H    -1.49843   1.93967   1.68512
H    -0.52616   1.86148  -0.85366
