29
Generated by autodE on: 2022-06-16. E = -575.620628 Ha. Imaginary frequency = -239.7 cm-1
C     2.42722   1.58828   0.11734
C     1.60161   0.36313   0.16966
C    -0.91531   1.11391   0.08514
C    -0.74662   1.48274   1.44951
O    -0.28048   2.56705   1.85300
C    -1.51402  -0.07175  -0.38465
C    -2.34075  -0.94585   0.53000
C    -1.99431  -0.07689  -1.81991
C     0.29558  -1.39022  -0.71074
C     0.32612  -2.14906   0.48096
N     0.31088  -2.74816   1.48473
N     1.26395  -0.38830  -0.85988
C     1.53490   0.06214  -2.23216
H     2.53364   2.01057  -0.88854
H     1.95277   2.33891   0.77300
H     3.43181   1.39387   0.53352
H     1.37774  -0.05543   1.15177
H    -0.60553   1.86578  -0.64885
H    -1.05879   0.72341   2.20414
H    -3.34089  -0.49457   0.65335
H    -2.48432  -1.94477   0.09209
H    -1.90402  -1.07248   1.52825
H    -2.98080   0.41979  -1.87055
H    -1.31417   0.47007  -2.48728
H    -2.12393  -1.09832  -2.20616
H     0.07357  -1.95144  -1.61778
H     1.21343  -0.71646  -2.93065
H     0.98341   0.99026  -2.43894
H     2.60946   0.23914  -2.35991
