38
Generated by autodE on: 2022-10-21. E = -1306.849086 Ha
C     4.00752   2.33295  -1.26271
O     2.78548   1.62116  -0.97847
C     2.62672   1.18459   0.25440
O     3.39852   1.32417   1.17223
C     1.30679   0.43577   0.38788
O     0.89278   0.37934   1.75995
C    -0.46569   0.23693   1.72285
O    -1.15188   0.12778   2.69403
C    -0.81472   0.25364   0.21830
C    -2.17938   0.70512  -0.18375
C    -3.30753   0.12133   0.41045
C    -4.58447   0.51567   0.00591
C    -4.73999   1.48731  -0.98776
C    -3.61306   2.06343  -1.58148
C    -2.33228   1.67228  -1.18433
O     0.25227   1.08246  -0.27102
C    -0.36504  -1.13674  -0.34147
F    -0.64396  -1.16226  -1.68566
O    -0.98842  -2.14298   0.31925
C    -0.83212  -3.46746  -0.21999
C     1.20664  -1.04246  -0.16130
F     1.83977  -1.08134  -1.38141
O     1.64029  -2.02830   0.65753
C     3.01509  -1.98488   1.07479
H     3.95993   2.59219  -2.32553
H     4.06416   3.23973  -0.64496
H     4.87252   1.68692  -1.05885
H    -3.18724  -0.63805   1.18299
H    -5.46192   0.06076   0.47079
H    -5.74065   1.79463  -1.30030
H    -3.72940   2.82086  -2.35985
H    -1.45176   2.11653  -1.64933
H    -1.49162  -3.59912  -1.08984
H    -1.12913  -4.15860   0.57791
H     0.20996  -3.66067  -0.50757
H     3.24081  -2.97778   1.48178
H     3.15660  -1.22608   1.85758
H     3.67761  -1.78055   0.22141
