24
Generated by autodE on: 2022-10-21. E = -800.441246 Ha
C     4.52978   1.40451   0.61012
O     3.16925   0.97564   0.41810
C     2.99777  -0.26882  -0.00687
O     3.86652  -1.07858  -0.25307
C     1.56784  -0.58693  -0.15540
O     1.12376  -1.74280  -0.54946
C    -0.34036  -1.68727  -0.57159
O    -0.98146  -2.65899  -0.90939
C    -0.60091  -0.36654  -0.14462
C    -1.83368   0.35246   0.06095
C    -1.83035   1.68656   0.52077
C    -3.03297   2.36237   0.71686
C    -4.25444   1.72841   0.46002
C    -4.26359   0.40596   0.00250
C    -3.06827  -0.28230  -0.19784
O     0.60311   0.24730   0.09232
H     5.02290   0.77073   1.36068
H     5.08030   1.35156  -0.33976
H     4.46870   2.43995   0.96170
H    -0.88207   2.18679   0.72422
H    -3.01694   3.39447   1.07454
H    -5.19418   2.26267   0.61620
H    -5.21211  -0.09634  -0.20114
H    -3.07983  -1.31259  -0.55457
