38
Generated by autodE on: 2022-10-21. E = -1306.771724 Ha. Imaginary frequency = -367.9 cm-1
C     4.64099   1.14200   1.37931
O     3.24053   0.82015   1.45584
C     2.48892   1.21162   0.43809
O     2.85958   1.84186  -0.52796
C     1.09322   0.72074   0.58083
O     0.61621   0.29211   1.75312
C    -0.81020   0.25139   1.62770
O    -1.49304  -0.28338   2.48235
C    -1.05715   0.90171   0.39300
C    -2.27804   1.14038  -0.32925
C    -3.52177   0.77956   0.23395
C    -4.69860   0.98248  -0.48401
C    -4.66120   1.54410  -1.76570
C    -3.43028   1.89807  -2.33120
C    -2.24581   1.69649  -1.62620
O     0.14038   1.33827  -0.11538
C    -0.11691  -1.62522  -0.50136
F    -0.95288  -1.34729  -1.48938
O    -0.65847  -2.43616   0.36832
C     0.08258  -3.06154   1.44130
C     1.17750  -1.08992  -0.56967
F     1.46419  -0.52541  -1.77879
O     2.23588  -1.64235   0.05401
C     2.84435  -2.75716  -0.63107
H     5.08687   0.66579   0.49450
H     4.77916   2.23080   1.32469
H     5.08935   0.74398   2.29594
H    -3.55266   0.34120   1.23146
H    -5.65525   0.70049  -0.03813
H    -5.58715   1.70213  -2.32311
H    -3.39331   2.33002  -3.33397
H    -1.28683   1.95829  -2.07571
H    -0.68150  -3.50608   2.08740
H     0.73519  -3.84340   1.02999
H     0.66739  -2.32004   1.99524
H     3.57857  -3.18114   0.06438
H     3.34860  -2.41181  -1.54512
H     2.08425  -3.51209  -0.88750
