25
Generated by autodE on: 2022-10-21. E = -573.252205 Ha
C    -4.38857   1.01362  -0.04455
C    -2.88856   1.05698   0.07554
O    -2.30632   2.07245   0.49277
C    -2.12759  -0.12617  -0.30584
C    -2.66108  -1.40863  -0.83409
N    -0.81102   0.00807  -0.14194
N     0.08394  -0.87431  -0.44326
C     1.39492  -0.56640  -0.08891
C     2.40465  -1.33276  -0.71026
C     3.74882  -1.10392  -0.42720
C     4.12062  -0.11229   0.48938
C     3.12647   0.63843   1.12707
C     1.77679   0.41620   0.85306
H    -4.80524   0.19705   0.56680
H    -4.80781   1.97190   0.28772
H    -4.68894   0.82242  -1.08743
H    -2.32662  -2.25385  -0.20769
H    -2.27471  -1.60388  -1.85011
H    -3.75603  -1.40799  -0.87101
H    -0.55201   0.93376   0.24764
H     2.10433  -2.10065  -1.42602
H     4.51435  -1.70332  -0.92595
H     5.17454   0.06582   0.71358
H     3.40323   1.39985   1.86047
H     1.02834   0.99108   1.40279
