25
Generated by autodE on: 2022-10-26. E = -573.242154 Ha
C    -2.16994  -1.60928  -1.49658
C    -2.74947  -0.24804  -1.22751
O    -3.90690   0.02359  -1.57925
C    -1.98623   0.78677  -0.53430
C    -2.65669   2.09599  -0.25828
N    -0.72093   0.64900  -0.12478
N     0.10981  -0.32672  -0.32813
C     1.31258  -0.25330   0.36587
C     2.36716  -1.05730  -0.12150
C     3.61234  -1.05297   0.50090
C     3.83885  -0.25542   1.63053
C     2.79496   0.52691   2.13542
C     1.54048   0.52630   1.52368
H    -1.75574  -2.05411  -0.57941
H    -1.32845  -1.53841  -2.20282
H    -2.95923  -2.24817  -1.91559
H    -3.60027   1.94390   0.28903
H    -2.01061   2.76132   0.33432
H    -2.91336   2.61333  -1.19789
H    -0.37894   1.46850   0.40209
H     2.18434  -1.67145  -1.00557
H     4.41598  -1.67648   0.10143
H     4.81516  -0.25453   2.11988
H     2.95071   1.13360   3.03097
H     0.73546   1.10819   1.97817
