43
Generated by autodE on: 2022-10-21. E = -1455.194652 Ha. Imaginary frequency = -386.7 cm-1
C    -0.05968  -2.02978   2.68404
O     0.40915  -1.44270   1.46031
C    -0.25447  -0.33562   1.06102
Cl    0.14445   1.15677   1.96112
N     0.81493   0.03739  -0.70201
C     2.17010   0.26239  -0.41823
C     2.92172  -0.84504   0.02668
C     4.26456  -0.69852   0.36543
C     4.89468   0.54680   0.24789
C     4.16475   1.64242  -0.22240
C     2.81556   1.50898  -0.55584
N     0.13162   1.09613  -1.11997
C    -1.21596   0.92237  -1.34483
C    -2.04914   2.15477  -1.13254
C    -1.67726  -0.07743  -2.31148
C    -0.69829  -0.72417  -3.26870
O    -2.88406  -0.33125  -2.42844
C    -1.61779  -0.41645   0.64886
O    -2.15673  -1.59640   0.26336
C    -1.39117  -2.57059  -0.45319
O    -2.52598   0.39872   1.22303
C    -3.88452   0.30696   0.77475
H     0.06732  -1.32189   3.51790
H    -1.11917  -2.31858   2.60300
H     0.55652  -2.92101   2.85771
H     2.42974  -1.81327   0.10447
H     4.82950  -1.56685   0.71307
H     5.95060   0.65740   0.50452
H     4.65094   2.61385  -0.34105
H     2.28285   2.37486  -0.95081
H     0.37234   1.99888  -0.69266
H    -3.04642   2.02757  -1.56866
H    -2.15998   2.38699  -0.06258
H    -1.56963   3.02429  -1.61597
H    -0.72731  -0.12875  -4.19836
H    -1.03639  -1.73992  -3.51540
H     0.33274  -0.74726  -2.90417
H    -0.55446  -2.10614  -0.98504
H    -2.07776  -3.04412  -1.16640
H    -0.99996  -3.32788   0.24165
H    -3.93911   0.24131  -0.31898
H    -4.38123   1.21952   1.12726
H    -4.37354  -0.57352   1.21824
