20
Generated by autodE on: 2022-06-23. E = -457.715320 Ha
C     3.00375  -0.78140   0.67784
N     1.76193  -0.04763   0.49695
C     1.77025   1.35116   0.56412
C     0.67929   2.09518   0.32206
C    -0.65961   1.50144  -0.04064
C    -0.56004  -0.01220  -0.13679
C    -1.72233  -0.83249  -0.51449
N    -2.87555  -0.15877  -0.75327
O    -1.68182  -2.07518  -0.62086
C     0.60548  -0.66703   0.12768
H     2.78749  -1.85633   0.71771
H     3.49181  -0.48801   1.61998
H     3.70895  -0.59485  -0.14999
H     2.73246   1.79286   0.82996
H     0.76380   3.18161   0.39867
H    -1.42402   1.80185   0.70564
H    -1.02245   1.93420  -0.99493
H    -2.95341   0.84614  -0.66229
H    -3.70106  -0.68754  -1.01260
H     0.64794  -1.75482   0.05169
