34
Generated by autodE on: 2022-07-27. E = -840.557160 Ha
C     2.43900   2.42539  -0.90546
N     1.76891   1.35675  -0.18831
C     1.09161   0.39802  -0.85885
O     1.24974   0.20055  -2.06896
C     0.25522  -0.50860  -0.01620
O    -0.46596  -0.06170   0.99266
C    -0.97465   1.11346   1.33689
C    -1.58211   1.13512   2.70010
C    -1.18324   2.14298   0.32936
O    -0.97981   1.94518  -0.88742
N    -1.68374   3.32330   0.77834
C    -2.09222   4.36383  -0.14141
C     0.32854  -1.95262  -0.11156
C     1.26168  -2.59878  -0.95933
C     1.32573  -3.98925  -1.01533
C     0.47324  -4.77656  -0.23288
C    -0.45652  -4.15145   0.60778
C    -0.53712  -2.76318   0.66479
H     2.92805   3.08816  -0.18108
H     3.20249   2.02072  -1.58534
H     1.72417   3.01537  -1.50351
H     1.52673   1.53010   0.78295
H    -1.53200   0.12895   3.13914
H    -2.63730   1.45738   2.67760
H    -1.04559   1.82261   3.37883
H    -1.90978   3.42945   1.76059
H    -1.28143   4.59848  -0.84800
H    -2.97782   4.07303  -0.73248
H    -2.33541   5.26809   0.43019
H     1.93419  -2.00327  -1.57480
H     2.05534  -4.46427  -1.67564
H     0.52845  -5.86634  -0.28130
H    -1.13352  -4.75428   1.21798
H    -1.27929  -2.28968   1.30859
