34
Generated by autodE on: 2022-06-23. E = -840.565731 Ha
C    -0.04904  -3.51106  -0.72699
N    -1.07123  -2.95620   0.13916
C    -1.16276  -1.68599   0.59284
O    -1.92724  -1.37553   1.52470
C    -0.36642  -0.63244  -0.07811
O     0.14077   0.34797   0.66069
C     0.52393   0.41680   1.91171
C     0.59749  -0.76026   2.79098
C     1.03222   1.73878   2.30941
O     1.51054   1.92475   3.44363
N     0.95523   2.72928   1.38925
C     1.45810   4.05663   1.66958
C    -0.34414  -0.36191  -1.50449
C    -1.19873  -1.03658  -2.40747
C    -1.16564  -0.74773  -3.77036
C    -0.29294   0.22429  -4.27295
C     0.55172   0.90753  -3.38969
C     0.53560   0.61758  -2.02743
H     0.26346  -4.49044  -0.33648
H    -0.40095  -3.64748  -1.76208
H     0.82874  -2.85223  -0.74343
H    -1.73508  -3.60120   0.56095
H    -0.39405  -1.08339   3.15757
H     1.00094  -1.61889   2.22008
H     1.24876  -0.53494   3.64383
H     0.54615   2.53000   0.48321
H     1.28770   4.69290   0.79255
H     2.53806   4.04344   1.89093
H     0.94589   4.50605   2.53596
H    -1.90604  -1.77832  -2.03556
H    -1.83773  -1.28151  -4.44660
H    -0.27046   0.44639  -5.34211
H     1.24024   1.66683  -3.76865
H     1.21370   1.14200  -1.35260
