48
Generated by autodE on: 2022-06-05. E = -2125.685341 Ha
C     3.38291  -2.36565   1.94864
O     2.65492  -1.50866   1.05668
C     2.11367  -2.08064  -0.01018
O     2.24253  -3.25414  -0.28844
C     1.36144  -1.10672  -0.93355
N     1.59345   0.28310  -0.64419
C     2.84986   0.79873  -1.14901
C     0.39665   1.12530  -0.77147
C     0.27706   1.71032  -2.19381
C     0.43835   2.26396   0.26557
C     1.32948   2.21148   1.34805
C     1.34027   3.21863   2.31688
C     0.45686   4.29692   2.22180
C    -0.43518   4.35820   1.14722
C    -0.44311   3.35250   0.17756
C    -0.74518   0.07648  -0.39146
C    -0.90070   0.06013   1.14568
O    -1.83784   0.58954   1.70456
O     0.09419  -0.54333   1.75826
C     0.09173  -0.55595   3.19366
C    -2.16474   0.39682  -0.89892
O    -2.53319   1.45369  -1.35551
O    -2.96559  -0.64361  -0.71290
C    -4.33437  -0.49371  -1.11856
C    -0.18964  -1.26924  -0.95128
Cl   -0.72349  -1.46155  -2.68604
Cl   -0.80437  -2.71613  -0.07711
H     4.22032  -2.84531   1.42204
H     3.75633  -1.71879   2.75024
H     2.71707  -3.13808   2.35909
H     1.72358  -1.40162  -1.93525
H     2.93231   0.73986  -2.25207
H     3.68307   0.22331  -0.71737
H     2.97937   1.84675  -0.84692
H     1.09623   2.42706  -2.34210
H     0.36743   0.92403  -2.95276
H    -0.66763   2.23497  -2.35307
H     2.00726   1.36355   1.43344
H     2.04425   3.15677   3.15036
H     0.46278   5.08423   2.97940
H    -1.13417   5.19375   1.06190
H    -1.15913   3.40934  -0.64064
H    -0.79859  -1.08296   3.56412
H     1.00351  -1.08814   3.48620
H     0.10560   0.47362   3.57758
H    -4.81068   0.32131  -0.55548
H    -4.81915  -1.44994  -0.89237
H    -4.38923  -0.28170  -2.19583
