18
Generated by autodE on: 2022-06-05. E = -1453.837810 Ha
C    -2.49160  -2.53987  -0.33584
O    -1.49466  -1.63092   0.16612
C    -0.84837  -0.90128  -0.73474
O    -1.02833  -0.95515  -1.93037
C     0.16332   0.01494  -0.09138
C     1.57535  -0.45612  -0.10445
O     2.55071   0.17906   0.23002
O     1.62124  -1.72077  -0.54261
C     2.91692  -2.33434  -0.61689
C    -0.24436   1.19425   0.41952
Cl    0.77234   2.37558   1.14026
Cl   -1.92140   1.63758   0.38549
H    -2.03282  -3.26573  -1.02190
H    -3.28101  -1.98225  -0.85956
H    -2.90183  -3.04934   0.54304
H     3.56631  -1.77277  -1.30359
H     2.74716  -3.34848  -0.99529
H     3.37918  -2.36989   0.37996
