30
Generated by autodE on: 2022-07-27. E = -671.793100 Ha
C     2.64257  -3.90971   0.68665
O     1.83873  -2.76799   0.40430
C     1.26075  -2.72444  -0.83763
O     1.41641  -3.67185  -1.62581
C     0.46666  -1.59148  -1.14484
N     0.25251  -0.44487  -0.39020
C     1.24844  -0.10537   0.65143
C    -0.74253   0.39672  -0.66410
C    -1.64652   0.08118  -1.81009
C    -0.99783   1.61877   0.12181
C    -1.07660   1.61138   1.52962
C    -1.37978   2.77845   2.23216
C    -1.61222   3.97554   1.54787
C    -1.55089   3.99468   0.15034
C    -1.25725   2.82829  -0.55584
H     2.04972  -4.83679   0.64927
H     3.48002  -3.99793  -0.02273
H     3.03349  -3.76371   1.70202
H    -0.08566  -1.67101  -2.07346
H     2.23300  -0.42048   0.29836
H     1.02098  -0.62566   1.58787
H     1.24852   0.97448   0.81591
H    -2.46419   0.80717  -1.87473
H    -2.08029  -0.92784  -1.68701
H    -1.10332   0.07247  -2.77234
H    -0.92493   0.68062   2.07764
H    -1.44336   2.74889   3.32242
H    -1.84752   4.88800   2.10057
H    -1.73268   4.92436  -0.39396
H    -1.21016   2.85480  -1.64648
