48
Generated by autodE on: 2022-06-05. E = -2125.635536 Ha. Imaginary frequency = -262.9 cm-1
C     4.24998  -2.68258  -0.31595
O     3.29397  -1.62230  -0.39661
C     2.39066  -1.70013  -1.38920
O     2.41282  -2.60801  -2.21423
C     1.31307  -0.71959  -1.38487
N     1.33636   0.56164  -0.82914
C     2.30127   0.85393   0.24895
C     0.46464   1.48207  -1.24462
C    -0.26653   1.27484  -2.53093
C     0.23887   2.74855  -0.51903
C     0.00290   2.78357   0.86988
C    -0.29768   3.98647   1.50714
C    -0.35495   5.17850   0.77835
C    -0.11484   5.15880  -0.59915
C     0.16494   3.95511  -1.24477
C    -1.08032  -0.88392   0.48168
C    -0.81612  -0.61791   1.92657
O     0.24224  -0.27907   2.42374
O    -1.91596  -0.82474   2.66391
C    -1.82499  -0.51265   4.06132
C    -2.13924  -0.10916  -0.15495
O    -2.63293  -0.29124  -1.26017
O    -2.51634   0.93695   0.62251
C    -3.43846   1.86520   0.05210
C    -0.30033  -1.83307  -0.18937
Cl   -0.95336  -2.71298  -1.57180
Cl    0.67267  -2.92354   0.81942
H     3.74457  -3.64550  -0.14980
H     4.85021  -2.74231  -1.23543
H     4.89331  -2.44361   0.53927
H     0.72747  -0.79298  -2.29169
H     3.30361   0.62712  -0.12327
H     2.07816   0.23429   1.12204
H     2.24719   1.91064   0.51169
H    -0.80306   2.18521  -2.81521
H    -1.01729   0.47364  -2.44725
H     0.43237   0.99475  -3.33610
H     0.03403   1.86485   1.45036
H    -0.49366   3.98937   2.58163
H    -0.58895   6.11935   1.28170
H    -0.15027   6.08495  -1.17692
H     0.34721   3.95415  -2.32051
H    -1.58025   0.55067   4.20115
H    -1.05664  -1.13120   4.54684
H    -2.81217  -0.73253   4.48408
H    -3.59361   2.64048   0.81203
H    -4.39423   1.37681  -0.18943
H    -3.02090   2.31647  -0.86051
