48
Generated by autodE on: 2022-06-10. E = -6332.700216 Ha
C    -0.10467   4.06435   0.98862
N     0.49488   2.74456   1.02195
C     0.46061   1.98720   2.12596
O    -0.00176   2.38685   3.19464
C     1.08947   0.56147   2.03826
C     2.55636   0.75984   2.53350
O     3.11317   0.04731   3.33550
O     3.11886   1.82512   1.97559
C     4.48840   2.09474   2.31758
C     0.38776  -0.43814   3.00126
C    -0.72146  -1.32655   2.44072
C    -2.01605  -0.64181   2.00920
C    -1.93714   0.43151   0.91719
C    -1.20713   0.07861  -0.37498
Br   -1.55157   1.67424  -1.62520
Br   -2.20736  -1.45671  -1.20962
C     0.24504  -0.20948  -0.35741
C     1.15435   0.01392   0.62812
O     2.40533  -0.38344   0.29380
N     2.40506  -0.63414  -1.13123
C     0.99318  -0.93593  -1.49428
C     0.76900  -0.44006  -2.91814
C     0.76560  -2.46257  -1.34116
O     0.84665  -3.03516  -0.27290
O     0.57356  -3.08676  -2.49735
C     0.38544  -4.50943  -2.44252
H     0.01330   4.48022  -0.01898
H    -1.17866   4.01482   1.22962
H     0.37965   4.73797   1.71254
H     0.87626   2.35904   0.16515
H     5.12584   1.25384   2.00943
H     4.58618   2.25701   3.40010
H     4.76069   3.00272   1.76807
H     0.02360   0.15015   3.85552
H     1.17736  -1.09706   3.38151
H    -0.98166  -2.03679   3.24243
H    -0.32483  -1.94338   1.62123
H    -2.47475  -0.14789   2.88189
H    -2.72481  -1.41970   1.68558
H    -2.96189   0.71182   0.63941
H    -1.49391   1.35161   1.30978
H     2.99385  -1.46759  -1.21261
H    -0.25271  -0.64062  -3.26121
H     1.46554  -0.95437  -3.59526
H     0.96086   0.63828  -2.96542
H     0.24692  -4.83569  -3.47938
H    -0.50534  -4.75009  -1.84408
H     1.26632  -4.99642  -2.00084
