33
Generated by autodE on: 2022-06-10. E = -5895.415130 Ha
C     2.59031  -4.16833   1.48813
N     2.14504  -3.03987   0.69277
C     2.73943  -1.83579   0.71043
O     3.71912  -1.54906   1.39106
C     2.09592  -0.78199  -0.25139
C     2.43087  -1.26274  -1.67644
O     3.49374  -1.04917  -2.21360
O     1.44554  -1.97236  -2.21551
C     1.68324  -2.53336  -3.51899
C     0.65987  -0.63423  -0.04765
C    -0.39949  -0.09660   0.06021
C    -1.29739   1.02039   0.14221
Br   -1.74945   1.35483   2.06482
Br   -3.00164   0.66124  -0.82396
C    -0.61015   2.25948  -0.46009
C     0.83300   2.51057   0.02222
C     1.99305   1.79130  -0.72219
C     2.70575   0.62593  -0.00652
H     1.79729  -4.49790   2.17689
H     3.46672  -3.86628   2.07293
H     2.86630  -5.01552   0.84182
H     1.34384  -3.17300   0.08206
H     0.76510  -3.06821  -3.78600
H     1.88627  -1.73295  -4.24397
H     2.53535  -3.22670  -3.48235
H    -0.61130   2.11930  -1.55286
H    -1.24388   3.13226  -0.24612
H     0.90057   2.31915   1.10573
H     0.99185   3.59333  -0.09188
H     1.65817   1.47224  -1.72403
H     2.76958   2.54870  -0.90611
H     2.71769   0.79828   1.07877
H     3.75286   0.57157  -0.33349
