15
Generated by autodE on: 2022-06-10. E = -437.222043 Ha
C     2.85662  -0.25240   0.04143
O     1.51392   0.25408   0.02760
C     0.52385  -0.64897  -0.00035
O     0.70642  -1.85230  -0.01389
C    -0.81519  -0.03060  -0.01293
C    -2.06310  -0.83342  -0.04041
N    -0.89638   1.28068   0.00132
O    -1.96414   1.95237  -0.00652
H     3.05059  -0.84791  -0.86225
H     3.50963   0.62731   0.06367
H     3.02269  -0.87300   0.93368
H    -2.66223  -0.57879  -0.93085
H    -2.68625  -0.60169   0.83977
H    -1.83001  -1.90402  -0.05105
H     0.00115   1.79626   0.02055
