15
Generated by autodE on: 2022-07-27. E = -437.215267 Ha
C     0.00415  -2.85221  -0.02652
O    -0.31076  -1.54993  -0.53439
C     0.12732  -0.50272   0.18338
O     0.76490  -0.62007   1.21335
C    -0.27819   0.76193  -0.46311
C    -1.03406   0.77497  -1.75073
N     0.02810   1.91144   0.10531
O     0.64486   2.14420   1.17727
H    -0.43497  -3.56579  -0.73325
H    -0.43081  -2.99177   0.97399
H     1.09362  -2.99276   0.02783
H    -1.23530   1.80791  -2.07041
H    -1.99463   0.24711  -1.64542
H    -0.46493   0.26621  -2.54413
H    -0.29796   2.74042  -0.42556
