48
Generated by autodE on: 2022-06-10. E = -6332.623439 Ha. Imaginary frequency = -372.0 cm-1
C     0.74577   4.77472   1.19282
N     0.80817   3.32953   1.10222
C     0.65479   2.55082   2.18412
O     0.34608   2.98522   3.29470
C     0.88247   1.02560   1.96872
C     2.37773   0.68605   2.19030
O     2.79394  -0.44806   2.26137
O     3.13903   1.76710   2.31615
C     4.55231   1.55119   2.46758
C     0.11128   0.21533   3.04281
C    -1.41345   0.34494   3.09415
C    -2.24558  -0.56142   2.17515
C    -2.57955  -0.03251   0.77329
C    -1.62780  -0.41472  -0.36274
Br   -1.68423  -2.39927  -0.62596
Br   -2.44188   0.42255  -2.02256
C    -0.25234   0.02647  -0.22459
C     0.51654   0.59408   0.59836
O     2.08894   1.15750  -0.34438
N     1.78926   0.99879  -1.59651
C     1.24262  -0.14922  -2.00808
C     0.65399  -0.17208  -3.38245
C     1.79007  -1.43781  -1.45668
O     2.62742  -1.54658  -0.58582
O     1.25774  -2.47435  -2.10097
C     1.63337  -3.77970  -1.64542
H     1.63228   5.19251   1.70028
H     0.68782   5.19519   0.18091
H    -0.14571   5.08111   1.75749
H     1.25199   2.90223   0.29109
H     4.99970   2.54711   2.55922
H     4.94592   1.03299   1.58151
H     4.75488   0.95439   3.36774
H     0.52025   0.54380   4.00909
H     0.39345  -0.83938   2.91527
H    -1.69557   0.08999   4.12794
H    -1.71559   1.39574   2.95899
H    -3.21593  -0.71776   2.67093
H    -1.78519  -1.56053   2.10774
H    -2.61252   1.06881   0.79258
H    -3.58108  -0.37544   0.47894
H     1.47788   1.84545  -2.08807
H     0.32155   0.82969  -3.68485
H    -0.20329  -0.85333  -3.41419
H     1.40211  -0.54252  -4.10247
H     1.06312  -4.48810  -2.25674
H     1.37822  -3.90058  -0.58285
H     2.71243  -3.93891  -1.78324
