66
Generated by autodE on: 2022-06-27. E = -1348.036190 Ha
C     5.85644  -1.38799  -0.22887
C     4.82794  -0.61860  -0.63918
C     4.99065   0.41449  -1.72287
C     3.50848  -0.77056  -0.01610
C     2.40839  -0.07444  -0.35397
C     1.07847  -0.25844   0.30968
C     0.40362   1.07343   0.82134
C     0.54912   1.16038   2.37341
C     1.84357   0.71112   3.00516
O    -0.36001   1.56933   3.06949
C     1.14689   2.32409   0.27868
O     2.14437   2.78144   0.85059
N     0.64747   2.84292  -0.84755
C     1.27109   3.95654  -1.53161
N    -0.95836   1.02171   0.30309
C    -1.95426   1.95392   0.81208
C    -1.36411  -0.36823   0.00424
C    -1.91045  -0.99333   1.31536
C    -3.26851  -0.79611   1.63333
C    -3.80171  -1.17999   2.86567
C    -2.98703  -1.77636   3.83110
C    -1.63573  -1.97289   3.54225
C    -1.10861  -1.58395   2.30701
C    -2.42726  -0.44504  -1.09630
C    -2.66973   0.61255  -1.98281
C    -3.57443   0.47416  -3.03981
C    -4.24699  -0.73377  -3.24032
C    -4.00490  -1.80164  -2.37053
C    -3.10812  -1.65474  -1.31010
C    -0.00702  -0.95725  -0.57490
C     0.11331  -2.48260  -0.51573
C     0.18535  -0.57004  -2.05461
H     5.72520  -2.13313   0.56179
H     6.85240  -1.29357  -0.67069
H     4.32648   0.20169  -2.57713
H     4.71533   1.41651  -1.35355
H     6.02607   0.44961  -2.08977
H     3.43947  -1.50676   0.79326
H     2.46541   0.66049  -1.15893
H     1.25656  -0.90208   1.17493
H     2.69440   0.73575   2.31755
H     2.03998   1.33901   3.88536
H     1.70557  -0.32499   3.35820
H    -0.17687   2.38262  -1.22482
H     2.27504   3.68785  -1.89965
H     1.37679   4.82198  -0.85929
H     0.64669   4.24456  -2.38623
H    -1.48774   2.93626   0.96436
H    -2.41256   1.65123   1.76489
H    -2.76011   2.07844   0.07505
H    -3.92857  -0.32732   0.90386
H    -4.86117  -1.00680   3.07007
H    -3.39927  -2.08015   4.79618
H    -0.97546  -2.43269   4.28154
H    -0.04820  -1.75186   2.14565
H    -2.13250   1.55224  -1.86480
H    -3.74764   1.31702  -3.71335
H    -4.95310  -0.84324  -4.06688
H    -4.51859  -2.75523  -2.51508
H    -2.93866  -2.49555  -0.63635
H    -0.02367  -2.90006   0.48767
H     1.11346  -2.77893  -0.86906
H    -0.62404  -2.95248  -1.18335
H    -0.55729  -1.06551  -2.69221
H     1.17767  -0.90517  -2.38749
H     0.12137   0.51044  -2.22899
