23
Generated by autodE on: 2022-06-27. E = -351.521382 Ha
C     3.59054  -0.75772  -0.91336
C     2.56574  -0.14157  -0.28412
C     2.80917   0.95726   0.71871
C     1.18846  -0.53799  -0.57076
C     0.07776   0.00019  -0.00729
C    -1.26851  -0.42931  -0.32614
C    -2.42393   0.05518   0.19537
C    -2.49719   1.14889   1.22280
C    -3.75373  -0.49389  -0.23791
H     4.63021  -0.48095  -0.71742
H     3.41086  -1.55540  -1.64078
H     3.88345   1.15651   0.83843
H     2.39369   0.69364   1.70557
H     2.31524   1.89357   0.41001
H     1.06441  -1.34116  -1.30716
H     0.19403   0.80114   0.72781
H    -1.34652  -1.23155  -1.06994
H    -3.02572   0.79113   2.12406
H    -3.09068   1.99665   0.83710
H    -1.51563   1.53092   1.53156
H    -3.65040  -1.28946  -0.99038
H    -4.30966  -0.90018   0.62624
H    -4.38884   0.30586  -0.65966
