43
Generated by autodE on: 2022-06-27. E = -996.498517 Ha
C     3.02160   0.75279   3.22191
N     2.88450   0.54946   1.79895
C     1.79614  -0.05236   1.26769
O     0.82997  -0.40023   1.98730
C     1.81582  -0.26946  -0.18406
C     2.86928   0.09224  -1.05204
C     2.70922  -0.07909  -2.55250
O     3.95771   0.60162  -0.65240
N     0.64088  -0.93008  -0.66772
C     0.81296  -2.31753  -1.12280
C    -0.54429  -0.40405  -0.44200
C    -1.76271  -1.23462  -0.40285
C    -2.89156  -0.85762  -1.15114
C    -4.05552  -1.62331  -1.08980
C    -4.11392  -2.74460  -0.25495
C    -3.00409  -3.10239   0.51828
C    -1.82833  -2.35682   0.44249
C    -0.70390   1.04617  -0.21878
C    -0.06701   1.98287  -1.05330
C    -0.27996   3.34601  -0.86041
C    -1.10985   3.79005   0.17685
C    -1.74638   2.86339   1.00737
C    -1.55699   1.49590   0.80293
H     3.09564  -0.19860   3.77827
H     2.16215   1.30651   3.63312
H     3.93287   1.33429   3.41396
H     3.64107   0.74375   1.13577
H     1.69554  -0.34167  -2.87945
H     3.40998  -0.85142  -2.90996
H     3.00193   0.86763  -3.03254
H     1.69973  -2.35795  -1.76472
H    -0.06430  -2.65503  -1.68557
H     0.98512  -2.97219  -0.25728
H    -2.84545   0.02636  -1.78970
H    -4.92367  -1.33942  -1.68839
H    -5.03080  -3.33580  -0.19925
H    -3.05581  -3.96396   1.18738
H    -0.96955  -2.61695   1.06222
H     0.57218   1.64094  -1.86676
H     0.20289   4.06718  -1.52336
H    -1.26553   4.86027   0.33124
H    -2.39718   3.20547   1.81493
H    -2.05254   0.76972   1.44878
