66
Generated by autodE on: 2022-06-27. E = -1347.954694 Ha. Imaginary frequency = -295.9 cm-1
C     5.66693   0.93209   0.64563
C     4.63396   0.77662  -0.21430
C     4.71001   1.27085  -1.63534
C     3.41082   0.13360   0.23906
C     2.29261  -0.04230  -0.51857
C     1.14006  -0.75155  -0.05072
C     0.00292   1.39811   0.92130
C     0.13828   1.20493   2.35509
C    -1.07901   1.33173   3.24723
O     1.25317   1.11489   2.91550
C     0.91939   2.33815   0.22985
O     0.74482   2.68453  -0.95834
N     1.96319   2.81373   0.95189
C     2.97165   3.69232   0.40946
N    -1.20834   1.15461   0.24954
C    -1.96304   2.34507  -0.19645
C    -1.71261  -0.13587   0.09770
C    -1.98485  -0.88351   1.40107
C    -3.25463  -0.61819   1.96075
C    -3.65795  -1.19021   3.16446
C    -2.79365  -2.04265   3.86026
C    -1.52836  -2.29717   3.33418
C    -1.12941  -1.72073   2.12196
C    -2.71627  -0.39732  -0.96726
C    -2.80070   0.37321  -2.15072
C    -3.68983   0.04619  -3.17249
C    -4.51407  -1.07766  -3.06660
C    -4.42595  -1.87611  -1.92389
C    -3.54588  -1.54214  -0.89504
C     0.08104  -1.18672  -0.88181
C    -0.35137  -2.63577  -0.80080
C     0.05797  -0.64274  -2.29042
H     6.59525   1.42216   0.33992
H     5.60166   0.57248   1.67688
H     4.59406   0.43893  -2.34956
H     3.89919   1.98528  -1.84827
H     5.67058   1.76664  -1.83334
H     3.40346  -0.22677   1.27315
H     2.27602   0.35216  -1.53429
H     1.27221  -1.22917   0.92068
H    -1.20682   0.43989   3.87666
H    -0.86572   2.17775   3.92156
H    -2.00524   1.53757   2.70433
H     2.10760   2.38073   1.86321
H     3.97962   3.31115   0.63156
H     2.89123   4.70973   0.83103
H     2.84784   3.76456  -0.67740
H    -1.62435   2.75085  -1.15479
H    -1.83307   3.12268   0.56809
H    -3.03009   2.10108  -0.25327
H    -3.93834   0.05316   1.43825
H    -4.65053  -0.96561   3.56201
H    -3.10359  -2.49575   4.80471
H    -0.83085  -2.94744   3.86696
H    -0.12868  -1.93294   1.77140
H    -2.14685   1.22529  -2.30130
H    -3.72681   0.67216  -4.06695
H    -5.20956  -1.33256  -3.86946
H    -5.04915  -2.76787  -1.82585
H    -3.50678  -2.18590  -0.01899
H    -0.14545  -3.10766   0.16613
H     0.21578  -3.19838  -1.56415
H    -1.41672  -2.77000  -1.04131
H     0.07205   0.45510  -2.30630
H     0.94628  -0.99841  -2.84103
H    -0.82135  -0.99590  -2.84238
