44
Generated by autodE on: 2022-05-30. E = -976.619500 Ha
C    -4.49982   1.26453  -1.21079
N    -3.48756   0.62629  -0.39284
C    -2.26609   0.33535  -0.88011
O    -1.98856   0.47394  -2.07551
C    -1.24919  -0.15073   0.15548
C    -1.73356  -1.44333   0.88638
C    -2.20147  -2.45708  -0.18397
C    -0.87889  -2.86445  -0.89686
C     0.19556  -2.10969  -0.08730
C    -0.41058  -2.10029   1.32639
C     0.10307  -0.60923  -0.46530
C     1.12146   0.25390   0.23651
C     2.57024   0.11808  -0.01645
C     3.50552   0.70167   0.85858
C     4.87235   0.58316   0.61524
C     5.32822  -0.11584  -0.50945
C     4.40823  -0.69563  -1.38736
C     3.03793  -0.58398  -1.14185
N     0.66049   1.10419   1.08228
C    -0.81098   1.05230   1.10940
C    -1.33253   0.98012   2.55046
C    -1.25138   2.35183   0.54911
N    -1.56199   3.38663   0.12518
H    -5.44044   1.30657  -0.64783
H    -4.66541   0.69796  -2.13893
H    -4.20202   2.29141  -1.48408
H    -3.65293   0.53841   0.60440
H    -2.47772  -1.25788   1.66958
H    -2.66069  -3.31973   0.32041
H    -2.95344  -2.04971  -0.87233
H    -0.86599  -2.57321  -1.95738
H    -0.71266  -3.95042  -0.84510
H     1.20733  -2.52260  -0.18218
H    -0.56526  -3.11039   1.73455
H     0.17307  -1.51615   2.05068
H     0.14096  -0.45519  -1.55189
H     3.14505   1.24416   1.73320
H     5.58820   1.03586   1.30521
H     6.40013  -0.20831  -0.69959
H     4.75765  -1.23873  -2.26831
H     2.33066  -1.03562  -1.83852
H    -0.97262   1.85114   3.11581
H    -0.96827   0.07030   3.04215
H    -2.43145   0.98097   2.56446
