44
Generated by autodE on: 2022-05-30. E = -976.520302 Ha. Imaginary frequency = -202.5 cm-1
C    -4.59574   0.97091  -1.25308
N    -3.61418   0.23882  -0.47994
C    -2.37114  -0.02168  -0.96598
O    -2.06874   0.27737  -2.13875
C    -1.43744  -0.69561  -0.05680
C    -1.78109  -1.37768   1.26442
C    -2.16868  -2.84144   0.87885
C    -0.81872  -3.43125   0.37161
C     0.18294  -2.24649   0.56958
C    -0.37670  -1.61651   1.85863
C    -0.21503  -1.19552  -0.45515
C     1.28077   0.51868   0.00637
C     2.69917   0.27162  -0.09691
C     3.16705  -0.80677  -0.87134
C     4.53622  -1.05376  -0.96373
C     5.44232  -0.24389  -0.27118
C     4.98254   0.82464   0.50930
C     3.61844   1.09012   0.59407
N     0.54636   1.42295   0.33554
C    -0.63615   1.92541   0.63444
C    -1.16041   1.95925   2.04633
C    -1.25550   2.74957  -0.34162
N    -1.81061   3.42126  -1.11969
H    -5.55725   0.94921  -0.72388
H    -4.73070   0.51158  -2.24390
H    -4.30225   2.02287  -1.40772
H    -3.78328   0.09914   0.50932
H    -2.50889  -0.86750   1.90944
H    -2.53455  -3.38538   1.76334
H    -2.96176  -2.86241   0.11793
H    -0.85981  -3.75801  -0.67770
H    -0.50501  -4.29410   0.97871
H     1.23935  -2.54219   0.57022
H    -0.38916  -2.31389   2.71015
H     0.14643  -0.69740   2.15207
H     0.12354  -1.20148  -1.49244
H     2.45409  -1.43766  -1.40260
H     4.89816  -1.88473  -1.57260
H     6.51383  -0.44585  -0.33827
H     5.69323   1.45471   1.04849
H     3.24909   1.92326   1.19485
H    -0.98243   2.93776   2.52426
H    -0.67746   1.18260   2.65185
H    -2.24600   1.77791   2.04029
