19
Generated by autodE on: 2022-06-17. E = -609.785389 Ha
C     4.27839  -0.19519  -0.02685
O     2.86632  -0.07643   0.18339
C     2.08464  -0.30338  -0.88527
O     2.51472  -0.59470  -1.99334
C     0.66503  -0.17478  -0.61559
O     0.30902   0.13939   0.59550
C    -0.84925   0.32951   1.16920
C    -2.09270   0.20082   0.45033
O    -2.19643  -0.08788  -0.73807
O    -3.14564   0.43913   1.25453
C    -4.44188   0.33826   0.65437
H     4.74745   0.01987   0.94046
H     4.53819  -1.21264  -0.35484
H     4.62141   0.52772  -0.78181
H    -0.08290  -0.33176  -1.38901
H    -0.78630   0.58679   2.22455
H    -4.55018   1.06765  -0.16228
H    -5.16241   0.55571   1.45140
H    -4.60961  -0.67490   0.25945
