27
Generated by autodE on: 2022-06-18. E = -702.971838 Ha
C    -2.99494  -2.94581  -0.02157
N    -2.37190  -1.64011   0.00795
C    -1.04172  -1.49360  -0.05358
O    -0.25680  -2.45865  -0.15886
C    -0.48850  -0.11264   0.01146
N     0.84875  -0.13465   0.03358
C     1.84763   0.72790   0.15864
C     3.18607   0.16000   0.14450
C     4.33066   1.12031   0.31554
O     3.35750  -1.05651  -0.00787
C    -1.32461   1.09971   0.02023
O    -2.53556   1.04478   0.31598
N    -0.75253   2.27724  -0.31924
C    -1.54493   3.49041  -0.39936
H    -2.70104  -3.50641  -0.92268
H    -4.08443  -2.81886  -0.02542
H    -2.71384  -3.55150   0.85628
H    -2.91140  -0.78672   0.16462
H     1.18029  -1.12154  -0.04879
H     1.67222   1.78904   0.31195
H     4.22042   1.67931   1.25910
H     4.32239   1.86237  -0.49994
H     5.28430   0.57697   0.31226
H     0.15966   2.28439  -0.76192
H    -2.29680   3.43775  -1.20459
H    -0.87426   4.33625  -0.59378
H    -2.07516   3.66604   0.54756
