41
Generated by autodE on: 2022-06-18. E = -973.645633 Ha. Imaginary frequency = -335.0 cm-1
C    -1.89528  -3.63153  -0.29817
N    -1.28791  -2.33136  -0.51584
C    -1.55648  -1.29348   0.29983
O    -2.31142  -1.43244   1.27835
C    -0.93267   0.03267  -0.01111
C    -1.77800   1.26865   0.17903
O    -1.53850   2.28133  -0.50090
N    -2.72227   1.23057   1.12541
C    -3.51905   2.39454   1.45128
N    -0.12842   0.18835  -1.11849
C     0.99797  -0.49629  -1.35263
C     1.93062   0.11736  -2.33195
C     3.07076  -0.73331  -2.79651
O     1.74446   1.26860  -2.71441
C     1.75840  -0.40223   0.80134
C     2.95347   0.30936   0.41203
O     4.05139  -0.22316   0.21761
C     0.66395   0.21145   1.48701
C     0.68186   1.71536   1.67417
C     0.12831  -0.54228   2.68198
H    -1.71221  -3.97321   0.73055
H    -2.98567  -3.60607  -0.46013
H    -1.44883  -4.34961  -0.99674
H    -0.82667  -2.16709  -1.40287
H    -2.85865   0.33032   1.59010
H    -4.14946   2.70530   0.60212
H    -4.16800   2.15339   2.30207
H    -2.87696   3.24694   1.72408
H    -0.11391   1.16382  -1.44864
H     1.04280  -1.56988  -1.19817
H     3.61113  -1.14521  -1.92988
H     2.66972  -1.58944  -3.36522
H     3.75111  -0.14948  -3.42937
H     1.90146  -1.47742   0.94798
H     2.85098   1.40997   0.28460
H     0.81571   2.26213   0.73188
H     1.51035   1.99373   2.34699
H    -0.24771   2.06053   2.14636
H    -0.87941  -0.20721   2.95921
H     0.79198  -0.34478   3.54247
H     0.10909  -1.62801   2.51520
