23
Generated by autodE on: 2022-06-16. E = -605.376874 Ha
C     3.53092   0.96062   1.10659
N     2.18156   0.78507   0.61217
C     1.62502  -0.40117   0.36353
O     2.16405  -1.50156   0.50256
C     0.14162  -0.33037  -0.08612
C    -0.04249  -1.33984  -1.14371
N    -0.21723  -2.09995  -2.00307
C    -0.78918  -0.64804   1.13841
C    -1.43468   0.69891   1.46917
C    -1.54101   1.36794   0.09215
C    -2.70372   0.86707  -0.67241
N    -3.59442   0.46041  -1.29610
N    -0.26362   1.01106  -0.52407
H     4.15574   1.48852   0.36925
H     3.97025  -0.02523   1.30133
H     3.52941   1.54248   2.04074
H     1.59292   1.59193   0.41280
H    -1.55247  -1.37681   0.83397
H    -0.22015  -1.08105   1.96983
H    -2.40466   0.59658   1.97215
H    -0.77220   1.31489   2.09253
H    -1.64661   2.46065   0.16456
H    -0.22671   1.14414  -1.53319
