17
Generated by autodE on: 2022-06-16. E = -526.682835 Ha
C     3.83767  -0.00969   0.28037
N     2.40992  -0.14570   0.48837
C     1.49108   0.23101  -0.41667
O     1.75835   0.73051  -1.52319
C     0.06576   0.03045  -0.05797
C    -0.36386  -0.51594   1.16405
N    -0.65416  -0.97536   2.19837
N    -0.77967   0.43107  -1.02679
C    -2.09235   0.45253  -1.17451
C    -2.99868  -0.01204  -0.20119
N    -3.79822  -0.38114   0.56484
H     4.28667   0.63263   1.05384
H     4.33451  -0.99184   0.31311
H     4.01309   0.44341  -0.70182
H     2.09367  -0.55112   1.36454
H    -0.22347   0.79957  -1.82011
H    -2.47851   0.85550  -2.11093
