57
Generated by autodE on: 2022-06-09. E = -1610.860043 Ha
C     0.39443   1.34585  -1.74132
N     0.39060   0.50865  -0.55207
C     1.32804   0.92753   0.46833
C     2.79200   0.74521   0.10256
C     3.20863  -0.07499  -0.95315
C     4.56976  -0.24345  -1.22563
C     5.53055   0.40094  -0.44095
C     5.12180   1.22153   0.61610
C     3.76145   1.39692   0.87962
C     0.91000   0.16485   1.72640
F     1.04605   1.00537   2.83035
C     1.63715  -1.16165   2.10369
C     1.70276  -2.10751   0.91901
C     0.45373  -2.55871   0.76250
C    -0.36115  -1.87027   1.84727
O     0.60535  -1.76234   2.90028
C    -0.56395  -0.31178   1.50512
C    -1.54884   0.23289   2.56333
F    -1.36626  -0.32028   3.77358
F    -2.82785  -0.04532   2.22215
F    -1.48542   1.55869   2.75649
C    -0.92336   0.08636  -0.00498
C    -1.94273   1.25502  -0.15179
C    -1.58374   2.55048   0.26453
C    -2.42902   3.64170   0.06714
C    -3.66547   3.47248  -0.56327
C    -4.03270   2.19869  -0.99709
C    -3.17862   1.10811  -0.79902
C    -1.43261  -1.15268  -0.76867
C    -0.80606  -1.59603  -1.94062
C    -1.25550  -2.73799  -2.61006
C    -2.33939  -3.46670  -2.11576
C    -2.97600  -3.03275  -0.94898
C    -2.53224  -1.88458  -0.29073
H     0.32800   2.42511  -1.50656
H     1.31807   1.18599  -2.31720
H    -0.45316   1.09670  -2.39065
H     1.20478   1.99921   0.72487
H     2.46097  -0.59138  -1.55499
H     4.87969  -0.88381  -2.05505
H     6.59396   0.26789  -0.65390
H     5.86510   1.73109   1.23405
H     3.44346   2.04225   1.70255
H     2.55378  -0.98733   2.67636
H     2.59188  -2.33398   0.33681
H     0.06585  -3.26067   0.02995
H    -1.26701  -2.37939   2.18708
H    -0.63173   2.72116   0.76175
H    -2.11515   4.63139   0.40747
H    -4.32983   4.32572  -0.71910
H    -4.98942   2.04321  -1.50160
H    -3.49446   0.13480  -1.16783
H     0.06952  -1.07368  -2.31857
H    -0.74190  -3.06526  -3.51727
H    -2.68453  -4.36537  -2.63236
H    -3.82456  -3.59032  -0.54552
H    -3.04463  -1.56755   0.61593
