41
Generated by autodE on: 2022-07-27. E = -866.783778 Ha
C     1.11341  -1.76604  -0.80760
N     0.51284  -0.62200  -0.10130
C     1.29061   0.18697   0.64324
C     2.71882   0.32962   0.73263
C     3.73657  -0.40252   0.05848
C     5.08536  -0.12171   0.27354
C     5.48868   0.88331   1.15905
C     4.50563   1.61902   1.83543
C     3.15874   1.35111   1.62674
C    -0.82518  -0.34783  -0.30691
C    -1.29633   1.04322  -0.27014
C    -0.55026   2.09891  -0.85349
C    -1.04220   3.39874  -0.88704
C    -2.29528   3.70457  -0.33232
C    -3.04247   2.68091   0.25437
C    -2.55113   1.37301   0.28877
C    -1.77604  -1.45276  -0.42223
C    -2.91992  -1.34661  -1.25095
C    -3.83364  -2.39186  -1.36057
C    -3.64036  -3.58573  -0.65181
C    -2.52089  -3.70909   0.17780
C    -1.60924  -2.65984   0.29981
H     1.75627  -1.38127  -1.61041
H     1.70557  -2.37938  -0.11801
H     0.32898  -2.37247  -1.26285
H     0.72117   0.90673   1.22926
H     3.49075  -1.19687  -0.63909
H     5.83654  -0.70565  -0.26467
H     6.54884   1.09054   1.31985
H     4.79466   2.41199   2.52994
H     2.40536   1.93861   2.15750
H     0.42799   1.88899  -1.29154
H    -0.44693   4.18588  -1.35719
H    -2.67674   4.72783  -0.35722
H    -4.01637   2.89964   0.70015
H    -3.14761   0.58965   0.75946
H    -3.07916  -0.43102  -1.82362
H    -4.70175  -2.28017  -2.01543
H    -4.35674  -4.40548  -0.74198
H    -2.36251  -4.62694   0.75007
H    -0.76125  -2.76763   0.97926
