41
Generated by autodE on: 2022-06-09. E = -866.790551 Ha
C    -0.04454  -1.64069  -2.70843
N     0.28914  -0.75068  -1.57450
C     1.53903  -0.24020  -1.61310
C     2.30168   0.31657  -0.53144
C     2.04085   0.10272   0.84871
C     2.88635   0.62458   1.82457
C     3.99929   1.39983   1.47430
C     4.27218   1.62513   0.11838
C     3.44370   1.09185  -0.86474
C    -0.67636  -0.44431  -0.64569
C    -1.65513  -1.46851  -0.27899
C    -2.99717  -1.12933   0.01822
C    -3.92830  -2.10562   0.36466
C    -3.55715  -3.45591   0.42274
C    -2.23466  -3.81102   0.13772
C    -1.29620  -2.83469  -0.19844
C    -0.69600   0.87681  -0.01331
C    -0.30056   2.04607  -0.70542
C    -0.36191   3.29800  -0.10277
C    -0.80241   3.43328   1.22254
C    -1.18190   2.28996   1.92904
C    -1.12424   1.03219   1.32380
H     0.45976  -2.61023  -2.60717
H    -1.12732  -1.78273  -2.76868
H     0.30553  -1.15602  -3.63042
H     2.00355  -0.25057  -2.60030
H     1.18735  -0.49989   1.15407
H     2.66670   0.43170   2.87786
H     4.64448   1.82309   2.24745
H     5.13816   2.22503  -0.17315
H     3.66739   1.27100  -1.91966
H    -3.30915  -0.08511  -0.04090
H    -4.95903  -1.81298   0.58090
H    -4.29003  -4.21993   0.69196
H    -1.92493  -4.85782   0.19344
H    -0.26130  -3.12914  -0.38066
H     0.05857   1.96850  -1.73316
H    -0.06290   4.18251  -0.67109
H    -0.83980   4.41724   1.69551
H    -1.51615   2.37169   2.96650
H    -1.40872   0.14950   1.89877
