57
Generated by autodE on: 2022-06-09. E = -1610.769498 Ha. Imaginary frequency = -239.5 cm-1
C     1.05817  -1.00894  -1.71914
N     0.39827  -0.05489  -0.81396
C     1.14728   0.65180   0.10619
C     2.57201   0.98129   0.04106
C     3.62428   0.18807  -0.47712
C     4.95226   0.61111  -0.39491
C     5.28694   1.82542   0.21132
C     4.26348   2.62198   0.73754
C     2.93645   2.20959   0.65123
C     0.77133  -0.22323   2.15470
F     0.90230   1.01514   2.69148
C     1.88424  -1.25284   2.49139
C     2.02501  -2.21922   1.31534
C     0.89318  -2.92952   1.31846
C     0.07847  -2.38181   2.49781
O     1.15843  -2.08261   3.43280
C    -0.40251  -0.94866   2.16886
C    -1.73064  -0.49260   2.56928
F    -2.04209  -0.84130   3.85768
F    -2.74551  -1.03539   1.83371
F    -1.87124   0.84659   2.50448
C    -0.94419   0.11668  -0.89813
C    -1.57115   1.42666  -0.63138
C    -0.92275   2.64104  -0.95379
C    -1.57519   3.86180  -0.80322
C    -2.89104   3.90975  -0.32465
C    -3.54964   2.71718  -0.01390
C    -2.90104   1.49197  -0.16994
C    -1.79487  -0.93361  -1.49711
C    -2.70262  -0.60918  -2.52531
C    -3.51427  -1.58964  -3.09687
C    -3.44285  -2.91323  -2.64955
C    -2.55300  -3.24680  -1.62234
C    -1.74272  -2.26766  -1.04987
H     1.83208  -0.46474  -2.27517
H     1.51234  -1.83637  -1.16785
H     0.33264  -1.39912  -2.43502
H     0.56015   1.44362   0.55388
H     3.42609  -0.77688  -0.93435
H     5.73740  -0.02841  -0.80611
H     6.32935   2.14541   0.27540
H     4.50031   3.57652   1.21439
H     2.14971   2.84579   1.06178
H     2.79176  -0.81697   2.92191
H     2.86467  -2.25220   0.62633
H     0.55927  -3.69717   0.62182
H    -0.67488  -3.04190   2.94096
H     0.09675   2.62990  -1.34212
H    -1.05539   4.78501  -1.07035
H    -3.39790   4.86958  -0.20172
H    -4.57716   2.73840   0.35691
H    -3.42283   0.56993   0.08268
H    -2.75933   0.41915  -2.88630
H    -4.20411  -1.31889  -3.89967
H    -4.08256  -3.67927  -3.09387
H    -2.50001  -4.27397  -1.25383
H    -1.07306  -2.52233  -0.23122
