38
Generated by autodE on: 2022-10-07. E = -1125.701127 Ha
C    -2.77296   2.63663   0.67431
C    -2.23596   2.02235  -0.58799
O    -2.70937   2.28192  -1.68214
C    -0.97929   1.18100  -0.51645
N    -0.54315   0.78422   0.82188
C     0.56578  -0.13796   0.54269
C     0.91158  -1.02558   1.75506
C     0.31823  -0.67695   3.08907
O     1.72833  -1.91250   1.63260
C     1.85771   0.65051   0.26838
C     1.99678   1.97375   0.70997
C     3.18859   2.67628   0.50508
C     4.26807   2.06080  -0.13346
C     4.14511   0.73477  -0.56225
C     2.95229   0.03672  -0.36202
C     0.11351  -0.98261  -0.71213
C    -0.33817  -2.40469  -0.32179
O    -1.05300  -2.49978   0.71617
O     0.02727  -3.35587  -1.05371
C    -1.04236  -0.12510  -1.33255
C    -2.43606  -0.78833  -1.20018
O    -2.70434  -1.70649  -2.01315
O    -3.20210  -0.35956  -0.29181
H    -3.69601   3.19053   0.45607
H    -2.96264   1.86881   1.43692
H    -2.01907   3.32699   1.08813
H    -0.19713   1.83031  -0.94864
H    -1.30525   0.21981   1.20445
H     0.55910   0.36792   3.33939
H     0.71987  -1.35105   3.85686
H    -0.77785  -0.76238   3.05770
H     1.15633   2.45197   1.21250
H     3.27173   3.71001   0.85003
H     5.19997   2.60807  -0.29469
H     4.98359   0.23859  -1.05718
H     2.87901  -1.00086  -0.68926
H     0.92803  -1.07699  -1.43667
H    -0.85454   0.03876  -2.40156
