28
Generated by autodE on: 2022-10-07. E = -670.615346 Ha
C     3.79830  -2.24956  -0.35657
C     3.16044  -0.89734  -0.17840
O     3.83317   0.14001  -0.06699
C     1.71396  -0.85541  -0.14423
N     1.16039   0.34535  -0.01241
C    -0.09658   0.79750   0.04693
C    -0.16869   2.25604   0.16786
C    -1.50943   2.92230   0.31875
O     0.87555   2.92578   0.15872
C    -1.24860  -0.12193   0.02328
C    -2.29572   0.06035  -0.89832
C    -3.39242  -0.80380  -0.90743
C    -3.45988  -1.86541  -0.00016
C    -2.42269  -2.05844   0.91870
C    -1.32566  -1.19617   0.93104
H     4.89172  -2.15914  -0.31905
H     3.49688  -2.68391  -1.32424
H     3.45290  -2.94228   0.42794
H     1.08926  -1.74190  -0.23126
H     1.85172   1.11714   0.04442
H    -1.97709   3.04200  -0.67257
H    -2.19906   2.33263   0.93838
H    -1.36377   3.92054   0.75287
H    -2.24308   0.87792  -1.61933
H    -4.19548  -0.64992  -1.63195
H    -4.31813  -2.54132  -0.00874
H    -2.47076  -2.88251   1.63441
H    -0.52801  -1.34676   1.66162
