10
Generated by autodE on: 2022-10-07. E = -455.046438 Ha
O    -2.76712  -0.00894   0.57242
C    -1.51280  -0.11285   0.45380
O    -0.82638  -1.11925   0.78798
C    -0.80293   1.08542  -0.13292
C     0.48711   1.13418  -0.50544
C     1.51826   0.02416  -0.42563
O     2.33821   0.09653   0.52725
O     1.52345  -0.82306  -1.35496
H    -1.43360   1.97180  -0.26830
H     0.87528   2.07667  -0.91600
