38
Generated by autodE on: 2022-10-07. E = -1125.642107 Ha. Imaginary frequency = -369.8 cm-1
C    -3.03779   2.40987   0.66548
C    -2.16883   2.18461  -0.54290
O    -2.47875   2.61421  -1.65523
C    -0.92515   1.40619  -0.40993
N    -0.51560   0.90770   0.79260
C     0.63761   0.17674   0.86270
C     0.72993  -0.85178   1.91226
C    -0.50624  -1.17372   2.71790
O     1.78214  -1.46351   2.11300
C     1.88605   0.75027   0.29818
C     2.09827   2.14177   0.33806
C     3.28947   2.70004  -0.13010
C     4.29879   1.87878  -0.64141
C     4.10008   0.49452  -0.68391
C     2.90806  -0.06591  -0.22265
C    -0.08080  -1.15553  -1.08986
C     0.04066  -2.52044  -0.46300
O    -0.98219  -3.08687   0.01435
O     1.19878  -3.03854  -0.48569
C    -1.25682  -0.44766  -1.38317
C    -2.63340  -0.84008  -0.86004
O    -3.47529  -1.18519  -1.72681
O    -2.85482  -0.75052   0.38357
H    -3.89436   3.03855   0.38999
H    -3.39463   1.43571   1.03475
H    -2.46482   2.88593   1.47628
H    -0.13662   1.71159  -1.09744
H    -1.29912   0.52454   1.32748
H    -0.82929  -0.29756   3.30513
H    -0.27427  -1.99851   3.40308
H    -1.33686  -1.45765   2.05653
H     1.32495   2.79358   0.74909
H     3.43066   3.78287  -0.08778
H     5.23189   2.31401  -1.00703
H     4.87809  -0.15718  -1.08945
H     2.74616  -1.14067  -0.28756
H     0.79618  -0.88050  -1.68063
H    -1.28468   0.06578  -2.34988
