45
Generated by autodE on: 2022-06-03. E = -1673.203402 Ha
C     4.85009   0.72719  -0.19231
N     3.48548   0.54615   0.26559
C     2.61386  -0.19830  -0.44126
O     2.90446  -0.82606  -1.46230
N     1.30954  -0.23996   0.04572
N     0.92431   0.41203   1.23463
C     1.11963  -0.43369   2.42945
C    -0.47146   0.83510   0.95570
C    -1.22635   0.99094   2.21346
N    -1.73642   1.34630   3.19304
C    -0.55907   2.29126   0.38881
O    -1.66882   2.73169   0.08965
N     0.59109   2.95698   0.34029
C     0.70797   4.29362  -0.20680
C    -1.03664  -0.22594  -0.07674
C    -2.01547  -1.21223   0.60497
O    -2.00397  -1.34845   1.83001
N    -2.84325  -1.90244  -0.19051
C    -3.65272  -2.97921   0.34761
C    -1.58115   0.27243  -1.48780
C    -0.63380   1.26091  -2.15271
C     0.42248   0.54580  -2.55195
C     0.12185  -0.87831  -2.13212
O    -1.31125  -0.92264  -2.25091
C     0.26687  -0.95978  -0.57149
Cl    0.32678  -2.76743  -0.11455
H     4.89273   1.29988  -1.13314
H     5.40757   1.27408   0.57772
H     5.33934  -0.24391  -0.35973
H     3.15280   1.05352   1.07878
H     2.15586  -0.79273   2.42032
H     0.43229  -1.29188   2.46368
H     0.98105   0.18496   3.32472
H     1.42387   2.44471   0.61628
H    -0.25656   4.80883  -0.11872
H     0.99635   4.26365  -1.27034
H     1.47090   4.85501   0.34895
H    -2.62860  -1.90331  -1.18525
H    -4.33461  -3.33616  -0.43392
H    -4.24337  -2.62505   1.20369
H    -3.02469  -3.82050   0.68715
H    -2.64518   0.52041  -1.48439
H    -0.80702   2.32942  -2.24494
H     1.34601   0.87928  -3.02058
H     0.60280  -1.69641  -2.67028
