20
Generated by autodE on: 2022-06-03. E = -975.268923 Ha
C     3.74218  -1.11428   0.57181
N     2.32795  -1.14773   0.26009
C     1.62701  -0.00984   0.05136
O     2.16311   1.10578   0.10338
C     0.19202  -0.19036  -0.23846
C    -0.79949   0.71922  -0.24194
Cl   -0.79723   2.39831   0.08594
C    -2.11108  -0.06523  -0.47471
C    -2.36249  -0.89061   0.80786
C    -1.39659  -1.81321   0.80934
C    -0.57262  -1.52882  -0.46660
O    -1.61184  -1.08123  -1.35615
H     3.93440  -0.58645   1.52026
H     4.31009  -0.59932  -0.21901
H     4.11103  -2.14329   0.65982
H     1.85799  -2.04531   0.23475
H    -2.94661   0.49994  -0.90006
H    -3.13784  -0.68205   1.54360
H    -1.16045  -2.57805   1.54805
H     0.00394  -2.35638  -0.89385
