25
Generated by autodE on: 2022-06-03. E = -697.872229 Ha
C    -3.35018   2.07944  -0.16739
N    -2.79642   0.85763   0.37556
C    -1.74248   0.24433  -0.19179
O    -1.17844   0.65894  -1.21133
N    -1.46203  -0.98674   0.42735
N    -0.28498  -1.50356   0.28439
C    -0.25189  -2.97700   0.43256
C     0.87417  -0.86219   0.03218
C     2.00845  -1.63782  -0.29584
N     2.97114  -2.23282  -0.58237
C     1.05036   0.59995   0.30145
O     0.39208   1.16820   1.17790
N     2.01646   1.20906  -0.40505
C     2.33857   2.60679  -0.18855
H    -2.54667   2.79724  -0.38891
H    -3.91313   1.89993  -1.09924
H    -4.02904   2.52316   0.57121
H    -3.24978   0.39805   1.15848
H     0.54434  -3.26432   1.12890
H    -0.07038  -3.42347  -0.55472
H    -1.23182  -3.28345   0.80709
H     2.47880   0.70786  -1.15749
H     1.49910   3.25953  -0.47813
H     2.56696   2.79454   0.87113
H     3.21539   2.86530  -0.79387
