25
Generated by autodE on: 2022-07-27. E = -697.873094 Ha
C     4.49727   0.12968  -0.44717
N     3.11344   0.43178  -0.14860
C     2.16997  -0.53234  -0.13602
O     2.41618  -1.72479  -0.33717
N     0.89279   0.02421   0.04818
N    -0.08300  -0.70379   0.49419
C     0.15272  -2.00503   1.18387
C    -1.35243  -0.26241   0.38423
C    -2.40466  -1.03526   0.94185
N    -3.28917  -1.65150   1.38408
C    -1.81490   0.98162  -0.30685
O    -3.03721   1.18956  -0.37059
N    -0.89671   1.80973  -0.82155
C    -1.28727   3.02125  -1.51154
H     4.61903  -0.24057  -1.47888
H     5.09240   1.04314  -0.32896
H     4.89020  -0.63925   0.23583
H     2.82092   1.39461  -0.01975
H     0.21852  -2.79724   0.43067
H     1.09077  -1.93727   1.73933
H    -0.67681  -2.19181   1.86978
H     0.08118   1.53279  -0.70922
H    -1.90106   2.79700  -2.39881
H    -1.87622   3.68130  -0.85500
H    -0.38295   3.55296  -1.83101
