45
Generated by autodE on: 2022-06-03. E = -1673.120120 Ha. Imaginary frequency = -279.5 cm-1
C     4.96145   0.96310   0.63533
N     3.53441   0.80642   0.85114
C     2.75099   0.25204  -0.10320
O     3.19240  -0.20055  -1.15982
N     1.36261   0.30388   0.09328
N     0.81498   0.28466   1.29557
C     1.24215  -0.67684   2.34115
C    -0.42292   0.82075   1.34995
C    -1.26986   0.45798   2.43379
N    -1.97445   0.16325   3.31105
C    -0.87212   2.06232   0.62500
O    -2.08236   2.30995   0.59271
N     0.08852   2.88219   0.17203
C    -0.19735   4.10299  -0.55391
C    -1.07848  -0.81175  -0.67239
C    -1.94221  -1.49490   0.30926
O    -1.52926  -2.35328   1.10404
N    -3.25192  -1.13631   0.28116
C    -4.20102  -1.66993   1.23791
C    -1.61045  -0.19278  -2.00697
C    -0.95786   1.16593  -2.24294
C     0.32438   0.89658  -2.50687
C     0.42411  -0.62695  -2.46083
O    -0.87753  -1.00957  -2.95380
C     0.25874  -1.08852  -0.97981
Cl    1.10150  -2.54514  -0.49654
H     5.17688   1.67292  -0.18081
H     5.41612   1.33934   1.56002
H     5.42277  -0.00204   0.38085
H     3.10676   1.30129   1.62678
H     2.25401  -1.02022   2.11545
H     0.55019  -1.52833   2.33314
H     1.22392  -0.17669   3.31666
H     1.02529   2.49908   0.08951
H    -1.22585   4.41800  -0.34363
H    -0.08336   3.95890  -1.64095
H     0.49334   4.89658  -0.23512
H    -3.51093  -0.29853  -0.22750
H    -4.00064  -1.31485   2.26209
H    -4.16205  -2.76887   1.24539
H    -5.21186  -1.35705   0.94679
H    -2.69035  -0.27112  -2.16290
H    -1.45922   2.12356  -2.12708
H     1.16455   1.57387  -2.64887
H     1.23993  -1.11356  -3.00099
