35
Generated by autodE on: 2022-06-14. E = -3343.886912 Ha
C    -0.80487   3.07376   0.84773
C     0.12971   2.70902  -0.26750
O     0.33641   3.42660  -1.22413
C     0.82456   1.32613  -0.18628
Br    2.40469   1.71985   1.03653
C    -0.01352   0.29906   0.37837
C    -0.75442  -0.66065   0.35401
C    -1.47663  -1.80228  -0.19027
C    -2.92022  -1.88423   0.37608
C    -3.89342  -2.76635  -0.34536
O    -3.21399  -1.24792   1.36923
C    -0.78797  -3.14894   0.20609
C    -0.14390  -3.20660   1.55676
O    -0.82074  -4.09051  -0.55809
C    -1.47390  -1.61431  -1.73882
C    -0.11498  -1.23515  -2.36594
C     0.26320   0.26913  -2.48129
C     1.35544   0.82654  -1.53911
H    -1.76063   2.55164   0.67130
H    -0.42849   2.74111   1.82492
H    -0.98479   4.15643   0.84641
H    -4.19383  -2.27273  -1.28432
H    -4.78288  -2.92277   0.27814
H    -3.43499  -3.72700  -0.62011
H    -0.79580  -2.74322   2.31350
H     0.78756  -2.61750   1.53307
H     0.08696  -4.24629   1.82139
H    -2.22339  -0.84866  -1.99144
H    -1.81610  -2.56262  -2.17359
H     0.69559  -1.79015  -1.86460
H    -0.14668  -1.63253  -3.39191
H     0.64990   0.42787  -3.49940
H    -0.64353   0.89319  -2.41459
H     1.86376   1.67365  -2.01985
H     2.10903   0.04856  -1.35011
