60
Generated by autodE on: 2022-06-14. E = -4124.486257 Ha. Imaginary frequency = -404.0 cm-1
C    -0.27763 -13.28678 -14.61361
O    -0.89870 -12.00661 -14.81310
C    -0.99892 -11.56796 -16.06525
O    -0.63219 -12.18867 -17.04657
C    -1.59429 -10.22872 -16.14654
N    -1.90009  -9.70726 -17.37728
C    -2.42799  -8.46962 -17.15543
C    -3.08923  -7.68411 -18.20950
C    -4.22516  -6.91474 -17.90730
C    -4.85966  -6.18389 -18.91091
C    -4.37129  -6.21640 -20.22073
C    -3.24694  -6.99059 -20.52658
C    -2.60537  -7.72109 -19.52765
O    -3.06210  -8.53557 -15.92774
C    -2.50461  -9.58882 -15.20607
O    -2.80324  -9.80123 -14.05425
C    -0.64287  -7.59608 -16.39898
C    -0.15146  -8.47881 -15.64304
C     0.80839  -8.87592 -14.58561
C     0.01252  -8.85565 -13.23020
C     0.00193 -10.02044 -12.29159
O    -0.58631  -7.82934 -12.96849
C     1.58465 -10.16997 -14.91924
C     1.92446 -10.44765 -16.36134
O     2.03388 -10.87471 -14.03495
C     1.93090  -7.77477 -14.42370
C     2.48572  -7.19183 -15.73423
C     2.07391  -5.73817 -15.97879
C     0.57964  -5.41469 -15.92581
C    -0.40027  -6.19877 -16.83650
Br    0.37620  -6.28606 -18.70051
C    -1.69775  -5.35643 -16.79756
C    -1.97499  -4.32468 -17.84485
O    -2.40530  -5.51630 -15.82068
H     0.77726 -13.24612 -14.91895
H    -0.35201 -13.48952 -13.53965
H    -0.80485 -14.06045 -15.18833
H    -1.35592  -9.93996 -18.20671
H    -4.60059  -6.88485 -16.88525
H    -5.73944  -5.58472 -18.66728
H    -4.86714  -5.63948 -21.00452
H    -2.86268  -7.02194 -21.54810
H    -1.72441  -8.31293 -19.77783
H     1.01318 -10.18404 -11.89299
H    -0.28901 -10.93734 -12.81878
H    -0.69898  -9.80229 -11.47551
H     1.22294 -10.00935 -17.07917
H     2.91731 -10.00217 -16.54382
H     2.01373 -11.53039 -16.51659
H     2.72871  -8.22582 -13.81599
H     1.49392  -6.97085 -13.81784
H     3.58535  -7.23370 -15.71247
H     2.18467  -7.80056 -16.59697
H     2.54779  -5.09890 -15.21467
H     2.48036  -5.41103 -16.94785
H     0.46221  -4.34282 -16.15192
H     0.18336  -5.56210 -14.90927
H    -2.20945  -4.81379 -18.80203
H    -1.08834  -3.69565 -18.01575
H    -2.82563  -3.70931 -17.52677
