18
Generated by autodE on: 2022-10-21. E = -588.777575 Ha
C     3.82645   0.10854  -0.00645
O     2.44579  -0.25473   0.14493
C     1.54823   0.64793  -0.25875
O     1.81347   1.74148  -0.73329
C     0.18585   0.18561  -0.07212
N    -0.90716   0.87631  -0.38329
C    -2.03520   0.17338  -0.09716
C    -3.42209   0.64526  -0.32714
C    -1.60619  -1.07045   0.44136
O    -2.17338  -2.06809   0.86331
O    -0.18045  -0.99738   0.43048
H     4.06410   0.27854  -1.06662
H     4.05036   1.01805   0.56950
H     4.40374  -0.73846   0.38100
H    -0.87393   1.81443  -0.78751
H    -3.61187   1.61082   0.16943
H    -4.12196  -0.09708   0.08024
H    -3.64056   0.77038  -1.40114
