37
Generated by autodE on: 2022-05-30. E = -1853.322564 Ha
C    -2.48781  -3.34001  -3.23579
N    -1.66874  -2.77518  -2.18020
C    -0.85813  -1.73606  -2.40593
O    -0.72641  -1.18143  -3.49813
C    -0.11243  -1.19627  -1.19365
N     1.29536  -0.82014  -1.44125
C     1.51617  -0.39476  -0.08694
C     2.89920  -0.06381   0.23859
N     4.01807   0.15851   0.43406
O     1.11751  -1.59860   0.73976
C     0.05261  -2.09057   0.07248
O    -0.60556  -3.02607   0.45293
C     0.37802   0.61740   0.12221
C    -0.65354   0.12969  -0.59639
C    -2.07025   0.55614  -0.79777
C    -3.02549   0.13233   0.34007
C    -3.12664   1.12884   1.49502
C    -1.82176   1.46015   2.22659
C    -0.85749   2.40815   1.47507
C     0.46118   1.77489   1.05329
Cl    1.33643   1.21875   2.57257
Cl    1.51609   3.05393   0.27279
H    -3.11065  -4.13663  -2.81229
H    -3.14039  -2.57182  -3.67837
H    -1.86586  -3.76250  -4.04067
H    -1.68071  -3.18698  -1.24812
H     1.86872  -1.64486  -1.65081
H    -2.41885   0.12237  -1.74465
H    -2.10951   1.64619  -0.93490
H    -2.71806  -0.85864   0.71410
H    -4.02858   0.00167  -0.09492
H    -3.83752   0.71922   2.23145
H    -3.57705   2.06600   1.12260
H    -2.07619   1.93826   3.18389
H    -1.30316   0.52525   2.49199
H    -1.32222   2.82512   0.57041
H    -0.59571   3.26798   2.10594
