17
Generated by autodE on: 2022-05-30. E = -621.853276 Ha
C    -4.00400   0.67782   0.17080
N    -2.61420   0.52707  -0.20397
C    -1.65017   0.13892   0.65588
O    -1.83154  -0.12583   1.85379
C    -0.30759   0.03912   0.07616
N     0.76182  -0.34617   0.83138
C     1.86098  -0.36412   0.09735
C     3.16130  -0.70964   0.50949
N     4.23840  -0.99460   0.84714
O     1.57763   0.00478  -1.15553
C     0.17219   0.28351  -1.23865
O    -0.32950   0.64083  -2.28597
H    -4.34547   1.71343   0.01557
H    -4.11679   0.42492   1.23128
H    -4.64723   0.00933  -0.42291
H    -2.34339   0.71434  -1.16675
H     0.69988  -0.58698   1.82452
