37
Generated by autodE on: 2022-05-30. E = -1853.255113 Ha. Imaginary frequency = -340.3 cm-1
C    -2.58689  -2.87338  -3.65911
N    -1.65109  -2.64884  -2.57478
C    -0.68314  -1.72144  -2.66388
O    -0.47064  -1.02578  -3.66351
C     0.14088  -1.55477  -1.44886
N     1.27687  -0.81846  -1.45382
C     1.65929  -0.68058  -0.15260
C     2.95604  -0.20955   0.21847
N     4.01215   0.15876   0.52885
O     1.18872  -1.77803   0.53593
C     0.11714  -2.29250  -0.20341
O    -0.60324  -3.17166   0.21967
C     0.02538   0.62490   0.39844
C    -0.99458   0.05743  -0.05121
C    -2.43032  -0.19156  -0.18121
C    -3.20079   0.21118   1.08833
C    -3.12184   1.68383   1.51235
C    -1.87881   2.16003   2.29460
C    -0.70690   2.75610   1.49451
C     0.44261   1.80626   1.15017
Cl    1.28268   1.26816   2.68884
Cl    1.66125   2.76006   0.16097
H    -3.28837  -3.66197  -3.36256
H    -3.15405  -1.95721  -3.88829
H    -2.06269  -3.18723  -4.57523
H    -1.74612  -3.16926  -1.70491
H     1.47855  -0.12393  -2.17555
H    -2.80337   0.36841  -1.05688
H    -2.62164  -1.25517  -0.39342
H    -2.86511  -0.42880   1.92189
H    -4.25745  -0.04323   0.90529
H    -3.99045   1.86206   2.16631
H    -3.27546   2.33289   0.63178
H    -2.21396   2.96191   2.96964
H    -1.51396   1.35577   2.95442
H    -1.07044   3.16116   0.53720
H    -0.25943   3.59405   2.04794
