15
Generated by autodE on: 2022-07-26. E = -304.938761 Ha
C     0.68093  -2.84957  -0.59759
C     0.12854  -1.58509  -0.05086
N     0.44345  -0.41431  -0.55061
C     0.09667   0.87031  -0.18648
C     0.52665   2.00812  -1.07061
C    -0.72332   1.04454   0.92372
N    -1.40790   1.18900   1.87251
H     1.31938  -2.66354  -1.47525
H    -0.12885  -3.53901  -0.89496
H     1.28271  -3.38323   0.16032
H    -0.55300  -1.59255   0.80375
H     1.07294  -0.44348  -1.35882
H     0.57466   2.94456  -0.49513
H     1.53367   1.82591  -1.48343
H    -0.15313   2.18314  -1.92672
