15
Generated by autodE on: 2022-05-29. E = -304.943831 Ha
C     3.06142  -0.03428   0.18682
C     1.69425   0.53935   0.27096
N     0.62660  -0.17139  -0.01058
C    -0.69864   0.19628   0.01425
C    -1.04549   1.59371   0.41130
C    -1.64455  -0.76395  -0.33529
N    -2.46361  -1.55984  -0.62777
H     3.03641  -1.09265  -0.11509
H     3.58172   0.03749   1.15833
H     3.68053   0.51982  -0.54113
H     1.54342   1.57728   0.57044
H     0.80202  -1.14100  -0.28884
H    -0.58238   2.33967  -0.26384
H    -0.68994   1.83017   1.43329
H    -2.13328   1.74220   0.38702
