38
Generated by autodE on: 2022-05-29. E = -954.337174 Ha. Imaginary frequency = -235.6 cm-1
C    -1.36443  -2.60847  -1.25844
C    -1.54867  -1.26002  -0.65596
N    -1.80487  -0.20895  -1.42929
C    -1.86382   1.10567  -1.01805
C    -1.84066   2.18351  -2.06672
C    -2.51721   1.35914   0.20445
N    -3.04480   1.58775   1.22534
C     0.44210   1.00439   0.00636
C     0.22585   1.99269   1.11191
C     1.32410   1.38626  -1.17977
C     2.79438   1.26877  -0.65278
C     2.98650  -0.26798  -0.48545
C     1.59473  -0.83358  -0.91287
C     1.26482   0.13117  -2.06629
C     0.57942  -0.38026   0.14162
C     0.53594  -1.05891   1.45975
F     1.57894  -0.72222   2.27947
F    -0.57555  -0.77923   2.18544
F     0.59517  -2.40872   1.35327
H    -0.91014  -2.54172  -2.25912
H    -0.71656  -3.21944  -0.61500
H    -2.32783  -3.14211  -1.35314
H    -1.86850  -1.17915   0.38175
H    -1.62133  -0.33321  -2.42497
H    -1.51622   3.13422  -1.61876
H    -1.12566   1.92753  -2.86295
H    -2.82817   2.35361  -2.53303
H     1.18034   2.18186   1.63510
H    -0.12978   2.95890   0.72207
H    -0.49198   1.64037   1.86152
H     1.09086   2.35232  -1.64603
H     3.49020   1.68176  -1.39876
H     2.94364   1.82464   0.28351
H     3.76905  -0.64873  -1.15968
H     3.25592  -0.55798   0.53824
H     1.59071  -1.90632  -1.14403
H     0.29806  -0.04499  -2.54417
H     2.04181   0.12846  -2.84570
