21
Generated by autodE on: 2022-06-01. E = -628.122775 Ha
C    -3.64427  -0.15983   0.76731
O    -2.37024   0.28628   0.29541
C    -1.32596  -0.54725   0.50189
O    -1.45546  -1.63571   1.05360
C    -0.09747   0.00811   0.00328
C     0.11923   1.25260  -0.62416
O    -0.54308   2.21642  -0.95970
O     1.54514   1.26236  -0.88426
C     2.07889   0.13095  -0.44408
C     3.52854  -0.12384  -0.57835
N     1.15756  -0.64212   0.08533
C     1.40308  -1.96000   0.66318
H    -3.94318  -1.09454   0.26965
H    -4.35363   0.63901   0.51952
H    -3.62614  -0.32098   1.85561
H     3.98900  -0.27203   0.41070
H     3.99648   0.73716  -1.07006
H     3.71026  -1.02797  -1.17982
H     2.46701  -2.19797   0.56476
H     1.11945  -1.95579   1.72219
H     0.80396  -2.70985   0.13375
