46
Generated by autodE on: 2022-06-01. E = -1296.474132 Ha. Imaginary frequency = -429.0 cm-1
C     5.90883  -0.87118   0.68467
N     4.68204  -0.27046   0.20576
C     3.55814  -0.99049   0.07890
O     3.49489  -2.21092   0.30696
C     2.33131  -0.28365  -0.37018
C     1.90455   1.00555  -0.37463
C     2.55479   2.25635   0.05116
C     1.64989   3.42506   0.31588
O     3.77666   2.35269   0.17895
C     0.40250   0.89959  -0.77060
O     0.46380  -0.20345  -1.67711
C     1.09274  -1.11605  -0.77205
C     0.12947  -1.06954   0.43790
C    -0.29188   0.26273   0.43889
C    -2.65131  -0.20211   0.11486
C    -3.25457   0.98662   0.70200
O    -3.66746   1.08139   1.84723
O    -3.26084   2.01003  -0.16611
C    -3.78475   3.25424   0.31443
C    -2.37228  -0.43443  -1.28144
O    -2.51679   0.21315  -2.29786
O    -1.82282  -1.71706  -1.31545
C    -1.63352  -2.14374  -0.02507
C    -1.32482  -3.58747   0.14796
N    -2.47997  -1.41460   0.76718
C    -2.53610  -1.59478   2.21043
H     5.81895  -1.20296   1.73298
H     6.17533  -1.75074   0.07867
H     6.71811  -0.13386   0.61602
H     4.60253   0.74741   0.10298
H     2.22436   4.25959   0.73683
H     1.17416   3.74135  -0.62748
H     0.83642   3.13526   1.00069
H    -0.06375   1.77972  -1.22300
H     1.29197  -2.08933  -1.22996
H     0.35278  -1.63387   1.34552
H    -0.58805   0.84407   1.31034
H    -3.71180   3.95448  -0.52575
H    -4.83403   3.14078   0.62324
H    -3.19188   3.62053   1.16532
H    -0.52460  -3.86361  -0.55157
H    -0.98519  -3.79987   1.16877
H    -2.21440  -4.19928  -0.07413
H    -3.51369  -1.27214   2.58007
H    -2.39571  -2.65591   2.44127
H    -1.75322  -1.00289   2.70993
