39
Generated by autodE on: 2022-06-18. E = -823.819549 Ha
C     0.11159   3.09836   1.14173
C     0.16733   2.15991   0.18844
C     0.46775   2.45831  -1.25290
C    -0.13001   0.71495   0.53755
C    -1.49282   0.22065  -0.03648
C    -2.39204  -0.43228   0.98050
C    -3.73700  -0.46153   0.94595
C    -4.57000   0.18431  -0.12731
C    -4.51962  -1.19401   2.00164
C    -1.00219  -0.78303  -1.06976
C    -1.85590  -1.48358  -1.95501
N    -2.60897  -2.02468  -2.66221
N     0.27757  -1.00183  -1.02577
N     0.83067  -0.22878  -0.09292
C     2.21002  -0.24699   0.13895
C     2.74989   0.48350   1.21349
C     4.12669   0.46166   1.44641
C     4.98147  -0.28068   0.62741
C     4.43914  -1.00918  -0.43814
C     3.06828  -0.99654  -0.68867
H     0.26505   4.15581   0.90793
H    -0.09408   2.83672   2.18408
H     1.39365   1.95190  -1.57321
H     0.59070   3.53767  -1.41903
H    -0.33650   2.09349  -1.91414
H    -0.10479   0.58396   1.62775
H    -2.01547   1.04536  -0.53998
H    -1.87335  -0.97433   1.77912
H    -5.37299   0.79382   0.32061
H    -5.06743  -0.59205  -0.73440
H    -3.99016   0.81876  -0.81068
H    -3.86601  -1.67048   2.74697
H    -5.20546  -0.50526   2.52550
H    -5.15434  -1.97308   1.54391
H     2.10364   1.06669   1.86702
H     4.53063   1.03418   2.28483
H     6.05706  -0.29248   0.81545
H     5.09243  -1.59517  -1.08932
H     2.65120  -1.56171  -1.52080
