23
Generated by autodE on: 2022-06-18. E = -351.521382 Ha
C     3.60723  -1.06350  -0.39137
C     2.56843  -0.21775  -0.21407
C     2.78479   1.26400  -0.04164
C     1.20233  -0.73637  -0.18572
C     0.07839   0.00319  -0.01072
C    -1.25407  -0.56514   0.01128
C    -2.42398   0.09918   0.18892
C    -3.73410  -0.63681   0.18659
C    -2.53501   1.58270   0.39878
H     3.44644  -2.13881  -0.51601
H     4.63945  -0.70324  -0.41602
H     2.38219   1.61497   0.92309
H     3.85339   1.51791  -0.08264
H     2.26248   1.83574  -0.82671
H     1.09912  -1.82016  -0.31797
H     0.17269   1.08440   0.12190
H    -1.30683  -1.65131  -0.13135
H    -4.27018  -0.48465   1.14069
H    -4.40110  -0.24610  -0.60292
H    -3.60420  -1.71759   0.02894
H    -1.56821   2.10217   0.40531
H    -3.04610   1.79590   1.35426
H    -3.16254   2.03398  -0.39009
