16
Generated by autodE on: 2022-06-18. E = -472.208573 Ha
N     4.78400  -0.71406   0.58363
C     3.69585  -0.28315   0.50901
C     2.43951   0.21245   0.42276
N     1.34524   0.65341   0.35261
N     0.25222   1.21483   0.31001
C    -0.90146   0.48033  -0.03230
C    -0.87532  -0.89177  -0.33701
C    -2.06302  -1.54512  -0.66676
C    -3.27565  -0.84674  -0.69596
C    -3.29517   0.51924  -0.39111
C    -2.11552   1.18484  -0.06016
H     0.06718  -1.44277  -0.31527
H    -2.03944  -2.61151  -0.90309
H    -4.20112  -1.36542  -0.95495
H    -4.23712   1.07208  -0.41118
H    -2.11575   2.24962   0.17950
