39
Generated by autodE on: 2022-06-18. E = -823.731113 Ha. Imaginary frequency = -341.4 cm-1
C     1.41350   2.74789   0.63638
C     0.43697   2.10212  -0.04142
C     0.37518   2.12914  -1.54652
C    -0.55274   1.31764   0.68147
C    -1.69174   0.76078   0.11497
C    -2.75164   0.18648   0.94386
C    -4.00906  -0.12773   0.55473
C    -4.54509   0.07984  -0.83465
C    -4.99024  -0.71864   1.52808
C    -0.87578  -1.19349  -0.70302
C    -1.77875  -2.02526  -1.35080
N    -2.60385  -2.62019  -1.92657
N     0.20038  -1.34574  -0.12736
N     0.91978  -0.79106   0.73227
C     2.25729  -0.51148   0.46246
C     3.00669   0.06874   1.50129
C     4.33038   0.44713   1.27666
C     4.91697   0.25189   0.02212
C     4.16769  -0.32101  -1.01490
C     2.84339  -0.69748  -0.80560
H     1.46086   2.71362   1.72783
H     2.17986   3.32930   0.11716
H     1.20818   2.70913  -1.96769
H    -0.56921   2.57214  -1.90405
H     0.42032   1.10715  -1.95763
H    -0.44014   1.27113   1.76763
H    -1.93866   1.03288  -0.91218
H    -2.47426  -0.00773   1.98632
H    -3.80199   0.47068  -1.54145
H    -4.93428  -0.86912  -1.24011
H    -5.39841   0.78101  -0.81156
H    -4.56015  -0.83332   2.53396
H    -5.89574  -0.09044   1.60420
H    -5.33374  -1.70974   1.18096
H     2.53383   0.21704   2.47325
H     4.90713   0.89814   2.08726
H     5.95437   0.54638  -0.15056
H     4.62179  -0.47383  -1.99682
H     2.25600  -1.14115  -1.61196
