28
Generated by autodE on: 2022-06-12. E = -741.678575 Ha
C     3.16745   0.88192   0.60554
C     2.66215   0.20291  -0.62580
O     3.09163   0.38877  -1.73815
C     1.48142  -0.83770  -0.42430
C     2.11545  -2.08688   0.01738
N     2.63634  -3.07245   0.33844
C     0.49815  -0.34347   0.53591
C    -0.51183   0.18121   0.94304
C    -1.86342   0.74538   0.84743
C    -2.86486  -0.28976   1.18614
N    -3.65088  -1.11060   1.41063
C    -2.06299   1.90684   1.73699
N    -2.21066   2.84066   2.40627
C    -2.04931   1.19487  -0.65762
C    -1.66346   0.13206  -1.70092
C    -0.19472   0.09361  -2.20776
C     0.70723  -1.07386  -1.76245
H     3.27389   0.16312   1.43261
H     4.12026   1.38371   0.39531
H     2.42114   1.62964   0.92160
H    -1.44268   2.10329  -0.78394
H    -3.10586   1.47884  -0.76625
H    -2.30059   0.34622  -2.57166
H    -1.97589  -0.86693  -1.35308
H    -0.23785   0.02234  -3.30475
H     0.30202   1.05501  -1.99891
H     1.47362  -1.26669  -2.52537
H     0.11202  -1.99164  -1.64874
