32
Generated by autodE on: 2022-07-27. E = -909.814042 Ha
C     0.66663   4.04117  -1.16791
N    -0.02448   3.17141  -0.23637
C     0.33105   1.87923  -0.09367
O     1.22706   1.36375  -0.77657
C    -0.38797   1.11671   0.95877
C    -1.04303   1.81721   1.98961
N    -1.58133   2.45567   2.80899
N    -0.25999  -0.24815   1.05084
C    -0.39472  -0.83260   2.40807
C    -0.03904  -1.04160   0.00012
C    -0.33317  -0.66691  -1.42375
O     0.39548  -1.07482  -2.33162
N    -1.45248   0.04652  -1.64929
C    -1.72170   0.61417  -2.95789
C     0.50742  -2.41299   0.16507
O     0.13595  -3.36136  -0.49830
O     1.47666  -2.47592   1.08075
C     2.01419  -3.77787   1.36157
H     0.17531   5.02133  -1.16595
H     0.63316   3.62700  -2.18763
H     1.72492   4.17456  -0.89017
H    -0.76049   3.56102   0.34410
H    -0.55288  -1.91062   2.34108
H    -1.27536  -0.38258   2.88125
H     0.50096  -0.59851   2.99602
H    -1.99099   0.38980  -0.86039
H    -2.64935   1.19602  -2.90410
H    -1.83933  -0.17395  -3.71678
H    -0.90000   1.27702  -3.27594
H     1.22334  -4.44233   1.73900
H     2.45764  -4.21194   0.45438
H     2.78300  -3.62621   2.12738
