32
Generated by autodE on: 2022-06-12. E = -909.813539 Ha
C     3.56180  -1.58102   0.10339
N     2.36726  -1.94282   0.85010
C     1.23741  -1.22667   0.98368
O     0.17998  -1.70731   1.39878
C     1.33096   0.25851   0.73345
C     2.47318   0.94231   1.21187
N     3.43651   1.45073   1.63096
N     0.26661   0.96850   0.33210
C     0.29116   2.42988   0.58814
C    -0.76030   0.40887  -0.37766
C    -0.43443  -0.66926  -1.34942
O     0.73894  -1.02621  -1.55904
N    -1.46382  -1.20755  -2.03000
C    -1.23628  -2.16079  -3.09470
C    -2.12253   0.90540  -0.19570
O    -3.06861   0.66476  -0.94261
O    -2.28165   1.60710   0.93641
C    -3.57719   2.17154   1.17373
H     3.32735  -0.83456  -0.66552
H     3.93953  -2.47915  -0.40381
H     4.35920  -1.18856   0.75293
H     2.26527  -2.91832   1.12077
H    -0.50203   2.91508   0.01856
H     1.25942   2.81471   0.24378
H     0.17594   2.62221   1.66129
H    -2.37501  -0.76318  -1.92100
H    -2.19503  -2.61353  -3.37730
H    -0.79344  -1.68887  -3.98885
H    -0.55110  -2.95311  -2.76002
H    -3.85914   2.85182   0.35698
H    -3.49392   2.72475   2.11629
H    -4.33260   1.37785   1.26483
