58
Generated by autodE on: 2022-06-26. E = -1433.715536 Ha
C    -0.69677  -3.80549   2.79220
N    -0.07832  -3.12309   1.67291
C    -0.68534  -3.04704   0.48396
O    -1.65964  -3.72458   0.15486
C    -0.03493  -2.09204  -0.57390
C     0.05978  -2.96988  -1.77775
N     0.25213  -3.70163  -2.65803
N     1.24993  -1.54861  -0.20701
C     2.38751  -2.45341  -0.15178
C     1.47860  -0.17111  -0.71791
C     2.71529  -0.08607  -1.62530
C     1.66967   0.80313   0.46539
C     2.11984   2.11604   0.23964
C     2.19732   3.04124   1.28305
C     1.84277   2.67138   2.58364
C     1.42581   1.36105   2.82709
C     1.34534   0.44100   1.77849
C     0.13085   0.13406  -1.54133
C     0.28710  -0.15885  -3.04136
C    -0.25108   1.61024  -1.43583
O     0.06348   2.40925  -2.30041
C    -0.98315   2.10913  -0.23477
O    -0.96968   3.43655  -0.18240
C    -1.43903   4.18642   0.94531
C    -1.55164   1.22788   0.63906
O    -2.15136   1.63783   1.79029
C    -3.57921   1.53041   1.82851
C    -1.44718  -0.22853   0.45931
O    -1.89776  -0.96022   1.33089
C    -0.90705  -0.81006  -0.85817
C    -2.16462  -1.10004  -1.69421
H    -1.56590  -3.24074   3.17039
H    -1.04016  -4.80283   2.48471
H     0.03814  -3.91359   3.59962
H     0.65858  -2.44999   1.85600
H     2.77656  -2.73506  -1.14637
H     2.10173  -3.37761   0.36597
H     3.20009  -1.98831   0.42330
H     3.63119  -0.19222  -1.02920
H     2.70886  -0.86523  -2.39556
H     2.75575   0.88694  -2.12925
H     2.38683   2.44116  -0.76549
H     2.53252   4.05984   1.07410
H     1.89695   3.39652   3.39881
H     1.15073   1.04970   3.83751
H     0.99473  -0.56608   1.98382
H     0.60686  -1.18527  -3.23909
H    -0.66596   0.01329  -3.55795
H     1.02149   0.51927  -3.48520
H    -1.20822   5.23211   0.70642
H    -0.90756   3.88693   1.85763
H    -2.52287   4.06802   1.07814
H    -3.88935   1.85298   2.83089
H    -3.90805   0.49472   1.65870
H    -4.03427   2.19151   1.07281
H    -1.91673  -1.58984  -2.64361
H    -2.69364  -0.16133  -1.91297
H    -2.83699  -1.75982  -1.13129
