32
Generated by autodE on: 2022-07-27. E = -744.226765 Ha
C    -3.37229  -0.63632   1.60205
N    -2.11414  -1.16650   1.12115
C    -1.47523  -0.60545   0.05131
O    -1.84038   0.50072  -0.39907
C    -0.36584  -1.35542  -0.50874
C    -0.08136  -2.67236  -0.14469
N     0.14215  -3.78075   0.17788
N     0.41859  -0.75111  -1.52658
C     0.54486  -1.48592  -2.79439
C     0.86182   0.48256  -1.41342
C     1.32112   1.22304  -2.62664
C     0.98026   1.12816  -0.09130
C     0.59096   2.46574   0.08614
C     0.74784   3.08898   1.32590
C     1.31410   2.39076   2.39505
C     1.72166   1.06187   2.22040
C     1.54680   0.42895   0.99205
H    -3.62971  -1.12985   2.54837
H    -3.28876   0.44469   1.78482
H    -4.20363  -0.79346   0.89090
H    -1.87187  -2.11621   1.38265
H     1.48511  -1.23746  -3.29798
H     0.52849  -2.55896  -2.57149
H    -0.30767  -1.24471  -3.44634
H     2.33213   0.87907  -2.90733
H     0.65803   1.05662  -3.48719
H     1.38890   2.29687  -2.41962
H     0.13941   3.01385  -0.74227
H     0.42704   4.12512   1.45411
H     1.44397   2.88030   3.36298
H     2.18003   0.51607   3.04808
H     1.86515  -0.60616   0.86395
