32
Generated by autodE on: 2022-06-26. E = -744.226739 Ha
C    -3.03975   2.04386  -0.97849
N    -2.42073   1.11621  -0.05565
C    -1.51246   0.19143  -0.48855
O    -1.03338   0.26160  -1.63975
C    -1.14203  -0.84744   0.45504
C    -1.81465  -1.05135   1.66063
N    -2.39385  -1.20418   2.67239
N    -0.09956  -1.74476   0.10245
C    -0.41786  -3.18093   0.12112
C     1.04039  -1.31338  -0.39434
C     1.93267  -2.25813  -1.13086
C     1.48512   0.07758  -0.18042
C     1.38295   0.66784   1.09438
C     1.86799   1.95510   1.31187
C     2.43979   2.68210   0.25963
C     2.54115   2.10443  -1.00813
C     2.07698   0.80548  -1.22585
H    -3.74034   1.55119  -1.67714
H    -3.59603   2.79906  -0.40782
H    -2.27376   2.55543  -1.57861
H    -2.87966   0.96091   0.83555
H     0.46903  -3.77491   0.36822
H    -1.18872  -3.35111   0.88105
H    -0.81182  -3.48439  -0.86015
H     2.71150  -1.71274  -1.67462
H     2.43830  -2.92671  -0.41244
H     1.36842  -2.88947  -1.83258
H     0.93817   0.10847   1.91807
H     1.80083   2.39528   2.30928
H     2.80955   3.69548   0.43210
H     2.98552   2.66475  -1.83365
H     2.15145   0.36327  -2.22057
