58
Generated by autodE on: 2022-06-26. E = -1433.653122 Ha. Imaginary frequency = -273.8 cm-1
C    -1.21971  -2.26945   3.54049
N    -0.78927  -2.50415   2.17463
C    -0.75934  -1.50228   1.27754
O    -1.14590  -0.37184   1.55479
C    -0.22384  -1.90231  -0.11217
C    -0.66979  -3.22122  -0.45362
N    -1.11197  -4.26193  -0.73230
N     1.12432  -1.64284  -0.45324
C     1.80033  -2.67468  -1.26121
C     1.62194  -0.36886  -0.41919
C     2.84988  -0.01989  -1.20661
C     1.54687   0.38033   0.87428
C     1.46561   1.77885   0.95310
C     1.48843   2.42373   2.19079
C     1.63845   1.68928   3.37094
C     1.79202   0.30206   3.29898
C     1.75627  -0.34396   2.06330
C    -0.13124   0.28734  -1.95522
C     0.57785   0.00980  -3.26203
C    -0.20888   1.70034  -1.62241
O     0.52785   2.55234  -2.14227
C    -1.23450   2.17163  -0.63732
O    -1.03070   3.44505  -0.26204
C    -1.56357   3.94102   0.96888
C    -2.28828   1.37759  -0.30427
O    -3.36565   1.86791   0.37271
C    -3.67086   1.34502   1.67057
C    -2.32894  -0.03163  -0.74416
O    -3.33366  -0.70794  -0.52455
C    -1.18447  -0.60202  -1.54233
C    -1.67890  -1.60911  -2.56409
H    -0.52363  -1.59638   4.06721
H    -2.21834  -1.80864   3.55586
H    -1.25903  -3.22950   4.06890
H    -0.39455  -3.40854   1.93684
H     1.72132  -3.63426  -0.73602
H     2.86128  -2.43349  -1.35575
H     1.35406  -2.77504  -2.25940
H     3.75429  -0.29537  -0.63667
H     2.89737  -0.48775  -2.19377
H     2.87050   1.07230  -1.33256
H     1.38144   2.37830   0.05122
H     1.39390   3.51114   2.22812
H     1.65526   2.19706   4.33789
H     1.94585  -0.28368   4.20817
H     1.88988  -1.42458   2.01941
H     0.94774  -1.01863  -3.33568
H    -0.11908   0.16222  -4.10552
H     1.41757   0.69636  -3.41039
H    -0.99685   4.85479   1.19142
H    -1.41244   3.21197   1.77860
H    -2.63093   4.18028   0.87758
H    -2.84227   1.52904   2.37125
H    -3.88488   0.26910   1.63169
H    -4.56425   1.88561   2.01076
H    -0.87100  -2.22931  -2.96700
H    -2.13670  -1.06668  -3.40889
H    -2.44474  -2.26319  -2.13424
