43
Generated by autodE on: 2022-10-21. E = -1094.906572 Ha. Imaginary frequency = -388.0 cm-1
C     3.51834  -2.31830  -0.69600
N     2.69479  -1.59393   0.25055
C     2.31872  -0.30968   0.00963
O     2.84075   0.34811  -0.90426
C     1.25105   0.22247   0.87784
C     1.02579   1.62371   1.19617
O     0.26087   2.00581   2.07752
O     1.69638   2.48291   0.41013
C     1.41446   3.87095   0.60591
N     0.54105  -0.64693   1.63335
C    -0.51859  -1.21252   1.68706
C    -1.34468  -2.09808   2.50174
C    -1.71936  -0.52793  -0.11624
O    -2.84794  -0.17932   0.57177
C    -2.93067   1.12843   1.13785
C    -1.79710  -1.79615  -0.96090
C    -2.55819  -1.38212  -2.25967
C    -1.53804  -0.45611  -2.98711
C    -0.31869  -0.44138  -2.00476
C    -0.35620  -1.89389  -1.48864
C    -0.81414   0.28809  -0.78621
F    -0.89439   1.64176  -0.81619
H     4.45473  -1.77681  -0.89476
H     3.00123  -2.46725  -1.66011
H     3.76454  -3.30094  -0.27432
H     2.19661  -2.12648   0.95506
H     1.66897   4.18667   1.62849
H     0.35125   4.08105   0.41647
H     2.03735   4.40937  -0.11866
H    -1.30048  -3.11024   2.06825
H    -0.99440  -2.12595   3.54453
H    -2.38934  -1.75950   2.45483
H    -2.02657   1.36631   1.71961
H    -3.07210   1.89322   0.35943
H    -3.80462   1.12222   1.80279
H    -2.20832  -2.67075  -0.44091
H    -3.50454  -0.87605  -2.02172
H    -2.79287  -2.27365  -2.85963
H    -1.92400   0.55869  -3.15925
H    -1.23204  -0.87115  -3.95915
H     0.62463  -0.07212  -2.42408
H    -0.25726  -2.62517  -2.30357
H     0.38610  -2.11202  -0.71359
