23
Generated by autodE on: 2022-06-19. E = -351.521382 Ha
C    -1.52977  -0.02053   3.45829
C    -0.79771   0.44074   2.42046
C    -0.05706   1.75086   2.50516
C    -0.71417  -0.33451   1.18427
C    -0.01785   0.01876   0.07465
C     0.03069  -0.78864  -1.12724
C     0.69608  -0.50622  -2.27581
C     1.51748   0.73168  -2.49951
C     0.64955  -1.45133  -3.44310
H    -2.06657  -0.97204   3.39360
H    -1.60965   0.53922   4.39433
H     1.02489   1.60652   2.34851
H    -0.20366   2.22893   3.48397
H    -0.39696   2.45049   1.72352
H    -1.26996  -1.27987   1.17335
H     0.53843   0.96004   0.07792
H    -0.53659  -1.72661  -1.09012
H     1.53866   1.41059  -1.63741
H     2.55840   0.45952  -2.74870
H     1.13240   1.29268  -3.36942
H     1.66703  -1.78038  -3.72109
H     0.23714  -0.94954  -4.33698
H     0.04070  -2.34278  -3.23250
