18
Generated by autodE on: 2022-06-19. E = -625.853348 Ha
C    -2.88082   1.68306  -0.82178
O    -1.96005   0.57991  -0.78438
C    -0.91523   0.70390   0.02944
O    -0.68382   1.69055   0.69765
C    -0.04913  -0.50349   0.02785
N    -0.53294  -1.72924  -0.10678
O    -1.70266  -2.10690  -0.27128
C     1.41904  -0.47283   0.22916
O     2.08304  -1.49310   0.31216
O     1.91982   0.75264   0.27338
C     3.34277   0.86274   0.44796
H    -3.29673   1.86687   0.17903
H    -2.37506   2.59019  -1.18220
H    -3.67415   1.38603  -1.51666
H     0.21191  -2.45677  -0.03855
H     3.55650   1.93686   0.47637
H     3.64895   0.38548   1.38953
H     3.86691   0.38902  -0.39415
