41
Generated by autodE on: 2022-06-19. E = -977.348204 Ha. Imaginary frequency = -388.9 cm-1
C     5.60083   0.77353  -2.14395
C     4.72421   0.25616  -1.25595
C     5.13565  -0.80745  -0.27109
C     3.34151   0.72967  -1.24082
C     2.37190   0.29825  -0.39909
C     1.01351   0.81567  -0.41969
O     0.22591  -0.67307  -1.53067
N    -0.53576  -1.31732  -0.71428
C    -1.38532  -0.59646   0.07554
C    -2.34302   0.37274  -0.53179
O    -3.26797   0.88906   0.06586
O    -2.08463   0.62702  -1.81704
C    -2.96032   1.55739  -2.46968
C    -1.74763  -1.34168   1.31646
O    -1.29480  -2.44840   1.55827
O    -2.52139  -0.66813   2.15618
C    -2.81093  -1.30189   3.41322
C     0.18868   0.86210   0.74731
C     0.67007   0.17475   2.00494
C    -0.59674   2.12929   0.98389
H     5.29486   1.54620  -2.85591
H     6.64089   0.43786  -2.18131
H     6.19607  -1.07097  -0.38953
H     4.97564  -0.47011   0.76651
H     4.53401  -1.72243  -0.40051
H     3.09030   1.50351  -1.97565
H     2.60307  -0.46820   0.34435
H     0.81013   1.57600  -1.17808
H    -0.12278  -2.13110  -0.23909
H    -3.99386   1.18235  -2.46843
H    -2.92600   2.53496  -1.96773
H    -2.58941   1.64516  -3.49729
H    -3.34602  -2.24777   3.24977
H    -1.88012  -1.49489   3.96515
H    -3.44245  -0.59555   3.96336
H     1.55976   0.69633   2.39905
H     0.95530  -0.87321   1.83381
H    -0.09911   0.20373   2.78904
H    -1.47302   1.95456   1.62399
H     0.04952   2.85779   1.50587
H    -0.92690   2.59420   0.04384
