44
Generated by autodE on: 2022-06-01. E = -1291.417829 Ha
C     2.31783  -3.45978  -1.02385
N     1.84539  -2.09660  -1.16837
C     1.50852  -1.34774  -0.11792
O     1.61212  -1.70798   1.05749
C     0.98086   0.06310  -0.46684
C     2.14434   1.05819  -0.58262
O     2.09814   2.02664  -1.30858
O     3.16954   0.73472   0.18428
C     4.30049   1.62769   0.18371
N     0.32119   0.03966  -1.76766
N    -0.96864  -0.45068  -1.44251
C    -1.72551  -0.95098  -2.40177
N    -2.40611  -1.42134  -3.22800
C    -1.47462   0.03671  -0.14716
C    -2.34137  -1.05701   0.51342
C    -1.87463  -2.48309   0.43599
O    -3.43279  -0.75459   0.95761
C    -2.22391   1.40514  -0.33484
C    -2.62329   1.94087   1.02645
C    -1.48426   2.36636   1.58477
C    -0.40026   2.08073   0.55732
O    -1.10521   2.24197  -0.67481
C    -0.14322   0.50211   0.56316
C     0.03891   0.02529   2.00686
C     1.15597   0.63427   2.80861
O    -0.80757  -0.67959   2.53059
H     3.07874  -3.51650  -0.23308
H     1.49441  -4.14421  -0.76038
H     2.76034  -3.78739  -1.97237
H     1.61607  -1.72661  -2.08772
H     4.72320   1.69518  -0.82792
H     5.02524   1.18781   0.87683
H     3.99030   2.62375   0.52800
H     0.22338   1.01208  -2.07942
H    -0.79264  -2.57859   0.58382
H    -2.12295  -2.88493  -0.56115
H    -2.41647  -3.07227   1.18704
H    -2.97497   1.38480  -1.13179
H    -3.62587   1.90856   1.44591
H    -1.31232   2.75998   2.58544
H     0.50493   2.69247   0.59510
H     2.05488   0.82577   2.21398
H     0.79778   1.59838   3.20815
H     1.38665  -0.02065   3.65875
