23
Generated by autodE on: 2022-06-01. E = -612.959776 Ha
C     2.53254  -1.42444  -0.14722
C     2.01647  -0.07249   0.24309
O     2.77184   0.88210   0.41136
C     0.56966   0.16789   0.43497
C    -0.56561  -0.44491   0.02444
C    -0.81549  -1.69217  -0.73601
C    -1.96123  -1.63858  -1.70891
O    -0.14701  -2.70295  -0.56729
C    -1.69092   0.58208   0.35417
C    -1.50571   1.77521  -0.61024
C    -0.38395   2.37217  -0.19852
C     0.09248   1.52868   1.00271
O    -1.16509   1.12785   1.56828
H     2.18430  -2.18863   0.56208
H     3.62947  -1.39760  -0.18033
H     2.13478  -1.70900  -1.13384
H    -1.95568  -2.53352  -2.34439
H    -2.91079  -1.59385  -1.14915
H    -1.90883  -0.72636  -2.32508
H    -2.70029   0.17757   0.47763
H    -2.15219   1.99841  -1.45777
H     0.15260   3.22377  -0.61458
H     0.75335   2.00499   1.73236
