21
Generated by autodE on: 2022-06-01. E = -678.402125 Ha
C     3.41256  -1.70803  -0.47063
N     1.99947  -1.44527  -0.27833
C     1.53058  -0.19932  -0.20886
O     2.25181   0.80916  -0.30555
C     0.05220   0.01262  -0.00917
N    -0.21535   1.30510   0.02841
N    -1.35901   1.91001   0.18230
C    -1.30634   3.23168   0.18258
N    -1.40220   4.39982   0.20116
C    -1.02737  -0.98886   0.12140
O    -2.20705  -0.71847   0.20740
O    -0.55621  -2.24202   0.13716
C    -1.52210  -3.29995   0.25797
H     3.56458  -2.79256  -0.51815
H     4.00923  -1.29862   0.35964
H     3.77498  -1.25367  -1.40573
H     1.34020  -2.21256  -0.17680
H     0.67319   1.84820  -0.08590
H    -2.08031  -3.19675   1.19894
H    -2.21959  -3.27558  -0.59101
H    -0.94470  -4.23074   0.25400
