25
Generated by autodE on: 2022-05-30. E = -573.275289 Ha
C     3.71841  -0.87315   0.63598
N     2.29808  -0.67892   0.84536
C     1.55335   0.04899  -0.00893
O     2.03828   0.60010  -1.00798
C     0.10827   0.15044   0.31320
C    -0.83705   0.66239  -0.51819
C    -0.66696   1.18638  -1.82469
N    -0.62353   1.63704  -2.89871
C    -2.20019   0.41178   0.11848
C    -2.43085  -1.12938   0.00544
C    -1.35233  -1.71378   0.95952
C    -0.63280  -0.43380   1.50283
C    -1.82105   0.54542   1.60696
H     4.11239  -1.51023   1.43664
H     4.25728   0.08771   0.64665
H     3.91393  -1.35701  -0.33420
H     1.85585  -1.10992   1.64936
H    -3.01682   1.03250  -0.26695
H    -3.44692  -1.37390   0.34747
H    -2.32780  -1.47944  -1.03094
H    -0.64748  -2.38969   0.45613
H    -1.80839  -2.26016   1.79759
H    -0.03730  -0.59530   2.40945
H    -1.51621   1.56464   1.88494
H    -2.61140   0.19107   2.28487
