19
Generated by autodE on: 2022-05-30. E = -440.328821 Ha
C    -3.63933  -0.90407   0.01414
N    -2.72204  -1.42094  -0.95266
O    -1.47781  -0.94145  -0.74162
C    -1.06927  -0.12432   0.17787
C     0.32347   0.24304   0.20432
C     0.76808   1.12976   1.21013
C     2.10712   1.51053   1.27490
C     3.02579   1.01703   0.34141
C     2.59401   0.13691  -0.66099
C     1.25917  -0.25000  -0.73440
H    -4.62377  -1.33410  -0.21119
H    -3.37084  -1.16849   1.06118
H    -3.72668   0.20512  -0.01008
H    -1.77103   0.27073   0.91208
H     0.05028   1.51453   1.93870
H     2.43768   2.19632   2.05841
H     4.07511   1.31599   0.39326
H     3.30890  -0.24991  -1.39112
H     0.92665  -0.93538  -1.51584
