19
Generated by autodE on: 2022-07-26. E = -440.328826 Ha
C    -2.92606   2.26486  -0.59894
N    -2.55796   1.81463   0.70677
O    -1.47456   1.01158   0.65182
C    -0.79375   0.64038  -0.38740
C     0.33877  -0.22852  -0.19463
C     0.73727  -0.68979   1.08132
C     1.84060  -1.52830   1.20876
C     2.56825  -1.92420   0.07757
C     2.18175  -1.47267  -1.18953
C     1.07845  -0.63265  -1.32829
H    -3.18532   1.43504  -1.29357
H    -2.12556   2.84958  -1.10457
H    -3.80687   2.90949  -0.48364
H    -1.07891   0.98487  -1.38107
H     0.17373  -0.38343   1.96419
H     2.14029  -1.87883   2.19925
H     3.43311  -2.58259   0.18538
H     2.74462  -1.77762  -2.07473
H     0.77587  -0.27952  -2.31720
