44
Generated by autodE on: 2022-05-30. E = -1013.608056 Ha. Imaginary frequency = -240.0 cm-1
C    -4.73220   1.87686  -0.59568
N    -3.66846   1.12821   0.04118
C    -2.56891   0.74661  -0.64042
O    -2.44885   0.96288  -1.85733
C    -1.51914   0.04842   0.14437
C    -1.79936  -0.70192   1.43953
C    -2.40100  -2.07259   0.98392
C    -1.17997  -2.79681   0.34275
C    -0.03737  -1.74881   0.49909
C    -0.39039  -1.14413   1.86992
C    -0.42312  -0.59770  -0.43965
C    -0.12035  -0.67527  -1.82266
N     0.22956  -0.80243  -2.92902
C     1.34387   1.07181  -0.08433
C     2.55278   0.30747   0.12056
C     3.01262  -0.06303   1.40188
C     4.15112  -0.85424   1.53082
C     4.84321  -1.29027   0.39319
C     4.39556  -0.92266  -0.88082
C     3.26215  -0.12399  -1.02001
O     0.69128   1.51292   0.95605
N    -0.53647   2.10577   0.88237
C    -0.65485   2.93059  -0.30197
H    -5.09003   1.35677  -1.49696
H    -5.56666   1.98108   0.10862
H    -4.39556   2.88308  -0.89832
H    -3.69501   0.99546   1.04568
H    -2.39773  -0.16330   2.18416
H    -3.23951  -1.94190   0.28565
H    -2.77667  -2.61758   1.86229
H    -0.92341  -3.71550   0.89093
H    -1.34437  -3.06662  -0.71041
H     0.97760  -2.13860   0.35805
H    -0.41635  -1.90488   2.66375
H     0.25316  -0.31741   2.18035
H     1.13347   1.49283  -1.06640
H     2.47803   0.27926   2.28853
H     4.50453  -1.13495   2.52552
H     5.73421  -1.91291   0.50118
H     4.93541  -1.25786  -1.76915
H     2.90530   0.16118  -2.01171
H    -0.68868   2.40200  -1.26825
H     0.18202   3.65503  -0.34010
H    -1.59499   3.48772  -0.19768
