33
Generated by autodE on: 2022-06-17. E = -839.620042 Ha
C     2.82457   2.53120  -0.21839
N     1.85287   1.46921  -0.39797
C     2.06565   0.24322   0.08036
O     3.09839  -0.13613   0.63967
C     0.87514  -0.73098  -0.05783
C     1.42837  -2.07444  -0.33711
N     1.84143  -3.12903  -0.58577
O     0.01061  -0.37047  -1.12276
C    -1.34716  -0.29373  -0.68891
C    -1.77056   1.16671  -0.63667
O    -1.01534   2.11325  -0.74834
O    -3.08017   1.27962  -0.45217
C    -3.61654   2.61083  -0.35701
C    -1.41475  -0.99054   0.68562
C    -1.77987  -2.46818   0.56108
C    -0.00074  -0.69581   1.23470
C     0.49944  -1.55571   2.38355
H     2.52364   3.39481  -0.82399
H     3.82169   2.19873  -0.54156
H     2.89504   2.84443   0.83660
H     0.91293   1.69210  -0.73702
H    -1.98230  -0.79740  -1.43249
H    -3.16578   3.14233   0.49297
H    -3.42163   3.16628  -1.28524
H    -4.69471   2.49037  -0.20348
H    -2.15706  -0.49234   1.32501
H    -1.78287  -2.95647   1.54627
H    -1.08155  -3.01543  -0.08999
H    -2.78837  -2.56799   0.13197
H     0.00832   0.35732   1.55364
H     1.51109  -1.24233   2.68082
H    -0.16436  -1.44264   3.25366
H     0.53742  -2.62175   2.11732
