21
Generated by autodE on: 2022-06-17. E = -682.205707 Ha
C    -2.78655   2.49102   0.45260
N    -1.81770   1.43507   0.24423
C    -2.16179   0.15765  -0.01359
O    -3.32523  -0.25878  -0.11157
C    -1.04869  -0.79164  -0.18774
C    -1.28007  -2.15248  -0.46474
N    -1.42868  -3.28751  -0.69504
O     0.18203  -0.32997  -0.06933
C     1.33281  -0.89964  -0.16400
C     2.52034  -0.07449   0.03360
O     3.64602  -0.53841  -0.03868
O     2.23892   1.20547   0.29557
C     3.36145   2.07519   0.50628
H    -3.79493   2.07355   0.35091
H    -2.65881   3.29500  -0.28919
H    -2.68343   2.92803   1.45843
H    -0.83050   1.66580   0.30575
H     1.41170  -1.96690  -0.38496
H     4.00053   2.10045  -0.38826
H     3.95240   1.73566   1.36937
H     2.94005   3.06779   0.70088
