21
Generated by autodE on: 2022-07-27. E = -682.206062 Ha
C     3.26757   2.00810   0.98470
N     2.15194   1.16605   0.60646
C     2.27998  -0.14439   0.31830
O     3.34680  -0.77533   0.33489
C     1.03824  -0.85205  -0.04078
C     1.04134  -2.22153  -0.36792
N     1.00360  -3.35501  -0.64542
O    -0.08273  -0.15892  -0.04774
C    -1.30410  -0.46803  -0.31002
C    -2.24994   0.64050  -0.19378
O    -1.94572   1.77715   0.12501
O    -3.48840   0.23205  -0.48626
C    -4.52435   1.22270  -0.41547
H     3.38864   2.84331   0.27711
H     4.18407   1.40684   0.98137
H     3.12181   2.42655   1.99309
H     1.22540   1.58037   0.56159
H    -1.57629  -1.48741  -0.59380
H    -4.59665   1.62913   0.60395
H    -4.32112   2.04085  -1.12181
H    -5.45298   0.70788  -0.68636
