38
Generated by autodE on: 2022-07-03. E = -1107.493359 Ha
C     3.59426   1.32534  -0.01089
C     2.84266   1.36144   1.28381
O     3.38266   1.46007   2.36768
C     1.29518   1.29650   1.19248
C     0.80935   2.77844   1.10287
C     0.88712   3.60506   2.35136
O     0.38301   3.21730   0.05315
C     0.79917   0.56833   0.03087
C     0.05064  -0.12937  -0.61458
C    -1.12084  -0.93922  -0.92854
C    -1.97203  -0.36313  -2.09520
C    -1.82248   1.09972  -2.38024
O    -2.73830  -1.08467  -2.70000
C    -0.69170  -2.37917  -1.26140
F    -0.06188  -2.42894  -2.44972
F    -1.72154  -3.23219  -1.31388
F     0.16757  -2.86229  -0.34399
C    -2.03740  -0.88619   0.34999
C    -1.34419  -0.98232   1.72499
C    -0.82600   0.32547   2.38764
C     0.69615   0.57148   2.43628
H     4.65127   1.56923   0.15490
H     3.13865   2.02154  -0.73252
H     3.51000   0.31598  -0.44655
H     0.02560   3.34988   2.99113
H     1.79713   3.39258   2.92845
H     0.82737   4.66916   2.08883
H    -2.63463   1.43578  -3.03716
H    -1.79285   1.69082  -1.45346
H    -0.85288   1.25652  -2.88246
H    -2.77594  -1.69316   0.23991
H    -2.59846   0.05980   0.30038
H    -2.11048  -1.39943   2.39629
H    -0.54094  -1.73380   1.69516
H    -1.15699   0.30354   3.43705
H    -1.33562   1.19647   1.94100
H     0.95108   1.16093   3.32628
H     1.22530  -0.38830   2.54105
