44
Generated by autodE on: 2022-07-27. E = -1055.435380 Ha
C    -2.86972   1.96462  -1.61842
N    -1.49999   1.61621  -1.29562
C    -0.86835   0.59658  -1.92499
O    -1.32873   0.10665  -2.97232
C     0.40721   0.13805  -1.34510
O     0.61415   0.08871  -0.01854
C    -0.14332   0.01400   1.05476
C     0.59462   0.13115   2.29717
C     1.92085   0.63092   2.30091
C     2.64700   0.70722   3.48595
C     2.07304   0.30425   4.69842
C     0.76125  -0.18506   4.71031
C     0.02839  -0.27520   3.52944
C    -1.58739  -0.23119   0.96862
C    -2.49404   0.52389   1.73552
C    -3.86569   0.27755   1.65349
C    -4.34984  -0.72891   0.81376
C    -3.45346  -1.49181   0.05332
C    -2.08552  -1.24230   0.12122
C     1.56319  -0.23596  -2.12660
C     1.62871  -0.01648  -3.52727
C     2.76520  -0.36405  -4.25264
C     3.87798  -0.93270  -3.61918
C     3.83004  -1.15559  -2.23789
C     2.69433  -0.82476  -1.50209
H    -3.52148   1.07662  -1.58447
H    -3.23113   2.69612  -0.88573
H    -2.94862   2.40521  -2.62483
H    -1.10778   1.99115  -0.43966
H     2.36634   0.97182   1.36581
H     3.66743   1.09725   3.46751
H     2.64313   0.37382   5.62746
H     0.30722  -0.50962   5.64950
H    -0.98143  -0.68512   3.55439
H    -2.11997   1.32047   2.38080
H    -4.55925   0.87964   2.24472
H    -5.42326  -0.91999   0.74813
H    -3.82605  -2.28472  -0.59896
H    -1.39650  -1.83482  -0.48375
H     0.77773   0.42908  -4.04076
H     2.78533  -0.18199  -5.33031
H     4.76612  -1.20295  -4.19465
H     4.68517  -1.60605  -1.72724
H     2.66847  -1.02812  -0.43091
