44
Generated by autodE on: 2022-07-03. E = -1055.441600 Ha
C    -2.10838   3.54935   2.72497
N    -1.43516   2.53468   1.94519
C    -1.99670   1.31127   1.74112
O    -3.07916   1.00417   2.28576
C    -1.27908   0.38823   0.86946
O    -0.19662   0.94455   0.29902
C     0.85486   0.52226  -0.36680
C     1.19008  -0.89830  -0.45727
C     1.55801  -1.47162  -1.69073
C     1.81443  -2.83893  -1.78586
C     1.71934  -3.65310  -0.65212
C     1.37816  -3.08991   0.58305
C     1.11005  -1.72692   0.68136
C     1.64345   1.59469  -0.94845
C     2.97376   1.37698  -1.37725
C     3.72499   2.41942  -1.91605
C     3.17843   3.70264  -2.03407
C     1.86478   3.93404  -1.60662
C     1.10174   2.89721  -1.07675
C    -1.73876  -0.95734   0.56198
C    -1.67857  -1.46557  -0.75576
C    -2.06807  -2.77284  -1.03749
C    -2.53610  -3.60680  -0.01538
C    -2.62906  -3.10941   1.28974
C    -2.23635  -1.80309   1.57784
H    -1.48512   4.45220   2.74541
H    -3.09107   3.81249   2.29837
H    -2.27688   3.21776   3.76278
H    -0.55941   2.75716   1.48749
H     1.60518  -0.84500  -2.58279
H     2.07788  -3.27399  -2.75252
H     1.91211  -4.72548  -0.73012
H     1.31145  -3.71949   1.47292
H     0.83715  -1.29699   1.64565
H     3.42556   0.39110  -1.26496
H     4.75216   2.23083  -2.23690
H     3.77134   4.51685  -2.45660
H     1.42775   4.93115  -1.69905
H     0.07227   3.08150  -0.76704
H    -1.32493  -0.82684  -1.56540
H    -2.00346  -3.14484  -2.06269
H    -2.83015  -4.63564  -0.23531
H    -2.99529  -3.75155   2.09456
H    -2.28732  -1.43191   2.60127
