46
Generated by autodE on: 2022-06-20. E = -1055.867308 Ha
C     5.44259  -0.16605   1.14733
C     4.47268  -0.27483   0.21704
C     4.78028  -0.58820  -1.22299
C     3.07290  -0.08115   0.60833
C     2.01538  -0.16073  -0.21962
C     0.61040   0.03236   0.24107
C    -0.20859   1.08749  -0.55346
C     0.00830   1.02467  -2.01621
N     0.14181   1.00923  -3.16825
C     0.21682   2.50855  -0.09900
C    -0.70972   3.25326   0.79875
O     1.29193   2.92041  -0.48566
O    -1.55617   0.79994  -0.26026
C    -1.73764  -0.51992   0.26526
C    -2.19808  -0.36090   1.74774
C    -3.05326  -1.41142   2.38912
O    -1.84845   0.63181   2.35490
C    -2.79467  -1.24913  -0.58055
C    -3.43629  -0.48713  -1.69907
O    -3.07215  -2.40689  -0.32666
C    -0.31499  -1.22677   0.20061
C    -0.13754  -2.04350  -1.08916
C     0.00134  -2.13406   1.39148
H     6.49693  -0.30325   0.89142
H     5.20304   0.06332   2.19007
H     5.86083  -0.70987  -1.38249
H     4.41841   0.21390  -1.88760
H     4.27447  -1.51418  -1.54350
H     2.89641   0.14804   1.66550
H     2.16353  -0.38137  -1.27966
H     0.61884   0.39037   1.28062
H    -0.24943   4.20172   1.10265
H    -0.97086   2.63375   1.66842
H    -1.65245   3.44090   0.25845
H    -4.08135  -1.30317   2.00365
H    -3.05870  -1.24979   3.47458
H    -2.72815  -2.42790   2.14077
H    -3.90320   0.43188  -1.31227
H    -4.18442  -1.12236  -2.19007
H    -2.67109  -0.16971  -2.42480
H    -0.40224  -1.48426  -1.99642
H    -0.75966  -2.94620  -1.05443
H     0.90963  -2.36396  -1.17861
H    -0.65606  -3.01450   1.40008
H     1.03895  -2.48818   1.29881
H    -0.08599  -1.61263   2.35548
