23
Generated by autodE on: 2022-06-20. E = -351.521383 Ha
C     3.66831   0.85512  -0.33554
C     2.58369   0.11328  -0.02072
C     2.72288  -1.26064   0.58351
C     1.24274   0.64025  -0.26631
C     0.07874  -0.00297   0.00258
C    -1.22705   0.56559  -0.26266
C    -2.43285  -0.00925  -0.02330
C    -2.61982  -1.37361   0.57739
C    -3.70793   0.71248  -0.35689
H     4.68293   0.48548  -0.16301
H     3.56362   1.85218  -0.77442
H     3.77966  -1.53200   0.71633
H     2.24623  -2.02474  -0.05286
H     2.22495  -1.31514   1.56588
H     1.19586   1.64350  -0.70678
H     0.11767  -1.00336   0.44188
H    -1.22508   1.56925  -0.70484
H    -3.20389  -2.01483  -0.10622
H    -3.21029  -1.30303   1.50806
H    -1.67863  -1.88890   0.80843
H    -4.33458   0.83712   0.54455
H    -3.52257   1.70553  -0.79197
H    -4.31439   0.12602  -1.07043
