23
Generated by autodE on: 2022-06-20. E = -704.258651 Ha
C    -1.89369  -2.00826   1.66825
C    -2.09578  -0.65449   1.05689
O    -3.12964  -0.00781   1.16048
C    -0.96270  -0.06374   0.29563
O     0.04268  -0.85813   0.13743
C     1.26701  -0.58727  -0.34543
C     2.04588  -1.73944  -0.58913
N     2.70434  -2.67313  -0.82550
C     1.82440   0.74425  -0.23897
C     3.28325   0.91080  -0.55849
O     1.12160   1.67730   0.16751
C    -1.11774   1.20644  -0.51095
C    -1.68415   2.42729   0.13651
O    -0.89715   1.10090  -1.70564
H    -1.07517  -1.97065   2.40507
H    -1.60014  -2.73745   0.89677
H    -2.82363  -2.32486   2.15619
H     3.55201   1.97096  -0.47387
H     3.90233   0.31622   0.13174
H     3.48904   0.55213  -1.57959
H    -1.41511   2.48394   1.19900
H    -2.78225   2.38039   0.06035
H    -1.33146   3.31491  -0.40608
