23
Generated by autodE on: 2022-07-27. E = -704.261489 Ha
C    -2.35861  -1.06939   1.48633
C    -1.90552  -1.43999   0.09941
O    -2.48175  -2.28917  -0.57093
C    -0.70815  -0.75469  -0.43441
O    -0.19562   0.10566   0.41820
C     0.88005   0.83128   0.53245
C     2.04967   0.69000  -0.25540
N     3.09492   0.58882  -0.76113
C     0.91943   1.75140   1.69470
C    -0.28735   1.80495   2.58228
O     1.92319   2.43063   1.86511
C    -0.22083  -0.79322  -1.82553
C    -0.70839  -1.85249  -2.76571
O     0.53743   0.10340  -2.19142
H    -3.26147  -1.64434   1.72592
H    -2.57000   0.00873   1.55070
H    -1.56905  -1.28967   2.22141
H    -0.10581   2.52806   3.38676
H    -0.49299   0.81043   3.00723
H    -1.17567   2.10013   2.00253
H    -0.16663  -1.74884  -3.71489
H    -1.78967  -1.74090  -2.93665
H    -0.55587  -2.85413  -2.33814
