34
Generated by autodE on: 2022-05-29. E = -765.526057 Ha
C     3.53070  -1.06938   0.56227
C     2.09854  -0.92670   0.98005
O     1.46087  -1.85923   1.44614
C     1.46722   0.45570   0.85403
N     0.43856   0.66337   1.88951
N    -0.82567   0.91463   1.26687
C    -0.75416   0.35676  -0.08289
C    -1.77462   0.99015  -1.05300
C    -2.76859   1.96778  -0.49964
O    -1.76510   0.66882  -2.22667
C    -1.14041  -1.14893  -0.06353
C    -1.89485  -1.65729   1.13276
O    -0.92765  -1.85199  -1.03223
C     0.74059   0.65812  -0.52540
C     0.85931   2.14348  -0.91345
C     1.29773  -0.17875  -1.67679
H     3.76537  -0.46145  -0.32216
H     4.15068  -0.68056   1.39001
H     3.78253  -2.12475   0.39452
H     2.27325   1.20025   0.93410
H     0.34381  -0.21561   2.39858
H    -0.93112   1.92563   1.20641
H    -2.24913   2.88167  -0.16603
H    -3.27595   1.54439   0.38033
H    -3.49587   2.23021  -1.27824
H    -2.16591  -2.70740   0.96305
H    -2.80144  -1.04924   1.27845
H    -1.29903  -1.57036   2.05098
H     0.34399   2.34847  -1.86289
H     0.44900   2.81117  -0.14148
H     1.92035   2.40133  -1.04573
H     2.30363   0.18301  -1.93824
H     1.36351  -1.24879  -1.44880
H     0.65784  -0.06111  -2.56130
