22
Generated by autodE on: 2022-05-29. E = -462.739522 Ha
C    -1.79980   1.56006  -0.78677
C    -0.35242   1.14093  -0.88267
O     0.41224   1.72174  -1.64953
C     0.08826   0.01685  -0.01588
C    -0.99555  -0.70333   0.75821
C    -1.51189  -1.98547   0.16840
O    -1.45083  -0.22802   1.78672
C     1.38914  -0.35892   0.13687
C     2.54321   0.29988  -0.56625
C     1.78131  -1.47511   1.06034
H    -1.99734   2.36811  -1.50250
H    -2.46688   0.70831  -0.99606
H    -2.02604   1.90044   0.23548
H    -0.68161  -2.67186  -0.05778
H    -2.23666  -2.46056   0.84346
H    -1.99665  -1.75190  -0.79511
H     2.49172   0.12332  -1.65219
H     3.49780  -0.09625  -0.19234
H     2.52911   1.39166  -0.43485
H     2.31933  -2.25396   0.49280
H     2.49725  -1.09177   1.80745
H     0.94469  -1.94067   1.59608
