12
Generated by autodE on: 2022-05-29. E = -302.748429 Ha
C    -1.86003  -0.36942   0.04444
C    -0.77938   0.63771  -0.29880
O    -1.07627   1.75038  -0.75890
C     0.60258   0.29615  -0.08339
N     0.97944  -0.89176   0.40635
N     2.13854  -1.37270   0.66972
H    -1.83297  -0.63238   1.11473
H    -1.73659  -1.30089  -0.53227
H    -2.83779   0.06947  -0.19185
H     1.39312   1.01208  -0.31654
H     0.21567  -1.54927   0.61437
H     2.82496  -0.64170   0.42904
