12
Generated by autodE on: 2022-07-26. E = -302.750381 Ha
C     2.17248  -0.03782  -0.94722
C     0.85647  -0.40570  -0.31007
O     0.58393  -1.57913  -0.00354
C    -0.07315   0.67070  -0.07461
N    -1.24131   0.34474   0.48937
N    -2.26576   1.02998   0.82847
H     2.70196   0.70407  -0.32748
H     2.00083   0.42846  -1.93118
H     2.79628  -0.93333  -1.06661
H     0.11480   1.71503  -0.32391
H    -1.30561  -0.67018   0.67950
H    -2.06336   2.01143   0.58372
