56
Generated by autodE on: 2022-06-27. E = -1411.758219 Ha
C     0.80417   2.92036  -3.36534
N     1.01442   2.38457  -2.03906
C     1.78591   1.32377  -1.77191
O     2.51294   0.75141  -2.58990
C     1.70051   0.84599  -0.29599
C     2.95095   1.30373   0.47119
C     4.29730   1.03983  -0.13219
O     2.81864   1.84126   1.55687
N     0.49673   1.36428   0.34704
C    -0.60275   0.39009   0.20823
C    -1.03170  -0.07450   1.60952
O    -0.48523   0.27512   2.63711
O    -2.08387  -0.88082   1.57029
C    -2.49949  -1.48301   2.80676
C    -1.80225   1.06901  -0.47244
C    -2.54261   1.99682   0.28052
C    -3.58717   2.72114  -0.29336
C    -3.91093   2.53577  -1.64195
C    -3.18073   1.61953  -2.40034
C    -2.13542   0.89069  -1.82021
C     0.04997  -0.80652  -0.60925
C     1.54317  -0.69716  -0.26794
C     1.89113  -1.31115   1.09902
C     1.03652  -2.51027   1.42681
C     1.29299  -3.32663   2.62111
N     2.38371  -2.99873   3.35841
O     0.55259  -4.26809   2.97775
C    -0.04517  -2.84021   0.66378
N    -0.48261  -2.13040  -0.40574
C    -1.70171  -2.50160  -1.10308
H     0.88166   4.01773  -3.35623
H    -0.19361   2.64595  -3.74650
H     1.56568   2.51561  -4.04343
H     0.39962   2.65600  -1.27185
H     4.46491   1.74662  -0.96095
H     5.07300   1.18686   0.63021
H     4.35635   0.02927  -0.55900
H     0.69313   1.53616   1.33414
H    -2.71590  -0.71073   3.55740
H    -1.71064  -2.15529   3.17539
H    -3.40438  -2.05433   2.57192
H    -2.29274   2.16570   1.33123
H    -4.14850   3.43514   0.31396
H    -4.72685   3.10248  -2.09639
H    -3.42066   1.46393  -3.45477
H    -1.58846   0.18850  -2.44728
H    -0.06186  -0.57101  -1.67287
H     2.13696  -1.16615  -1.06066
H     2.95798  -1.58943   1.08198
H     1.78953  -0.56083   1.89948
H     3.01026  -2.24472   3.10730
H     2.57432  -3.52772   4.20210
H    -0.62171  -3.73308   0.91167
H    -2.56415  -1.90256  -0.76894
H    -1.57694  -2.35666  -2.18691
H    -1.91700  -3.56174  -0.91662
