36
Generated by autodE on: 2022-07-27. E = -953.994569 Ha
C     1.43168   1.97507  -3.24197
N     1.68554   1.65379  -1.85186
C     1.33563   0.46326  -1.33209
O     0.80874  -0.42876  -2.01162
C     1.62559   0.24645   0.11299
N     0.69846  -0.33251   0.90769
C    -0.60610  -0.55707   0.81140
C    -1.21035  -1.38080   1.87408
O    -2.40291  -1.61876   1.96286
O    -0.29935  -1.84184   2.74785
C    -0.79086  -2.60132   3.86000
C    -1.45678   0.03905  -0.22832
C    -1.37344   1.41736  -0.49827
C    -2.16833   1.99116  -1.49051
C    -3.05777   1.19876  -2.22441
C    -3.15582  -0.16978  -1.95200
C    -2.36383  -0.74771  -0.95944
C     2.92764   0.34788   0.75243
C     4.10924   0.86851  -0.02358
O     3.05663  -0.01114   1.93646
H     1.86170   1.20921  -3.90476
H     0.34874   2.03258  -3.44579
H     1.88939   2.94469  -3.47336
H     2.02766   2.37753  -1.22865
H     1.13788  -0.64693   1.79060
H    -1.48327  -1.99630   4.46324
H    -1.30674  -3.50583   3.50699
H     0.09035  -2.87351   4.45195
H    -0.68835   2.04271   0.07672
H    -2.09566   3.06282  -1.68901
H    -3.67632   1.64825  -3.00462
H    -3.84946  -0.79294  -2.52116
H    -2.43288  -1.81738  -0.75692
H     4.14706   0.46155  -1.04390
H     4.05273   1.96695  -0.10485
H     5.02877   0.60939   0.51767
