56
Generated by autodE on: 2022-06-27. E = -1411.687073 Ha. Imaginary frequency = -387.6 cm-1
C     0.92670   3.50568  -2.91826
N     1.16973   2.87963  -1.63273
C     1.00330   1.55652  -1.45574
O     0.74551   0.79731  -2.39143
C     1.18616   1.10233  -0.00673
C     2.49291   1.36684   0.64527
C     3.72216   1.41567  -0.21732
O     2.55566   1.46420   1.87064
N     0.12341   1.13802   0.84978
C    -1.10719   0.59333   0.55047
C    -1.74410  -0.16558   1.61880
O    -2.90020  -0.57303   1.61856
O    -0.88687  -0.44921   2.62686
C    -1.36485  -1.29093   3.67864
C    -1.91735   1.16781  -0.54012
C    -1.83868   2.54989  -0.80702
C    -2.59036   3.12972  -1.82992
C    -3.45552   2.34600  -2.59999
C    -3.56257   0.97735  -2.32940
C    -2.80252   0.39357  -1.31556
C    -0.00084  -1.45109  -0.52852
C     1.31891  -1.05538  -0.23839
C     1.96574  -1.56241   1.03831
C     1.30402  -2.81706   1.56099
C     1.88957  -3.60059   2.66130
N     3.06207  -3.14252   3.16576
O     1.35154  -4.62196   3.13336
C     0.07998  -3.19178   1.10500
N    -0.58555  -2.53947   0.10669
C    -1.89034  -3.01825  -0.33649
H    -0.11822   3.35933  -3.23707
H     1.58465   3.07864  -3.69014
H     1.12819   4.58035  -2.83246
H     1.29850   3.47027  -0.81651
H     3.60722   0.83539  -1.14336
H     3.91518   2.46377  -0.50018
H     4.58372   1.05210   0.35875
H     0.43020   1.00759   1.81625
H    -0.49941  -1.49223   4.32120
H    -1.75564  -2.23397   3.27199
H    -2.15499  -0.78567   4.25410
H    -1.18882   3.17446  -0.19394
H    -2.50830   4.20318  -2.01643
H    -4.04493   2.79822  -3.40094
H    -4.23674   0.35379  -2.92168
H    -2.88308  -0.67575  -1.13315
H    -0.44108  -1.19559  -1.49057
H     1.95165  -0.87008  -1.10519
H     3.04127  -1.72169   0.85602
H     1.92113  -0.78954   1.83038
H     3.51497  -2.30516   2.82288
H     3.48881  -3.64523   3.93618
H    -0.42280  -4.06631   1.51774
H    -2.70888  -2.45885   0.13543
H    -1.96942  -2.91725  -1.42815
H    -1.99139  -4.07972  -0.07669
