55
Generated by autodE on: 2022-06-25. E = -1116.626611 Ha
C     0.19198  -1.89563  -1.39609
C    -0.23694  -1.84339   0.04082
O     0.32647  -2.47520   0.91664
C    -1.49827  -1.00938   0.38882
C    -2.66482  -1.98228   0.35641
C    -2.92960  -2.79480   1.46981
C    -3.97795  -3.71667   1.43953
C    -4.77417  -3.84078   0.29601
C    -4.50961  -3.04158  -0.81930
C    -3.45654  -2.12223  -0.79338
C    -1.31872  -0.26537   1.72576
C    -0.56509   1.04164   1.32842
C    -1.25450   2.25442   1.97061
C     0.88524   0.93702   1.75244
C     1.89788   0.53155   0.96590
C     3.26889   0.35866   1.41215
C     4.30430  -0.09240   0.66344
C     4.19138  -0.50001  -0.77958
C     5.68152  -0.22659   1.25045
N    -0.71161   1.02494  -0.15230
C    -0.33573   2.01511  -1.04049
C    -0.79818   1.98671  -2.37844
C    -0.39326   2.95806  -3.29430
C     0.46813   3.99349  -2.91800
C     0.92143   4.03301  -1.59482
C     0.53482   3.06737  -0.66588
N    -1.66310   0.07229  -0.57967
H     0.46530  -0.89011  -1.74830
H    -0.64846  -2.23302  -2.02260
H     1.04397  -2.57924  -1.50226
H    -2.31134  -2.71065   2.36491
H    -4.17512  -4.33982   2.31503
H    -5.59638  -4.55994   0.27453
H    -5.12313  -3.13378  -1.71864
H    -3.24979  -1.51047  -1.67231
H    -2.31119  -0.02584   2.13106
H    -0.76644  -0.85028   2.46947
H    -1.25382   2.14604   3.06609
H    -2.29992   2.31384   1.63092
H    -0.75103   3.19848   1.72215
H     1.07064   1.15988   2.80938
H     1.67612   0.32142  -0.08220
H     3.46926   0.61466   2.45950
H     4.85747   0.11865  -1.40678
H     3.17326  -0.42386  -1.18249
H     4.53182  -1.54265  -0.90807
H     5.71654   0.08684   2.30424
H     6.41021   0.37895   0.68198
H     6.03598  -1.27101   1.18495
H    -1.47252   1.19096  -2.68818
H    -0.76636   2.90230  -4.32062
H     0.77763   4.75414  -3.63780
H     1.59565   4.83073  -1.27156
H     0.92509   3.12177   0.34715
H    -2.60689   0.46399  -0.46180
