23
Generated by autodE on: 2022-06-25. E = -351.519920 Ha
C     3.66639  -0.86502   0.08092
C     2.56224  -0.08104   0.00146
C     2.66992   1.41290  -0.16962
C     1.23493  -0.68162   0.08171
C     0.07681  -0.01852   0.01455
C    -1.21741  -0.65834   0.09694
C    -2.42293  -0.03005   0.01915
C    -2.56275   1.45972  -0.17847
C    -3.70704  -0.80423   0.09420
H     3.58307  -1.94923   0.20542
H     4.67305  -0.44160   0.02391
H     2.16418   1.74462  -1.09170
H     2.18224   1.94445   0.66448
H     3.72007   1.73379  -0.21689
H     1.20639  -1.77040   0.20694
H     0.09596   1.06714  -0.11564
H    -1.21074  -1.74715   0.22694
H    -2.39468   1.73556  -1.23479
H    -3.57532   1.79926   0.08615
H    -1.84313   2.03505   0.42335
H    -4.32011  -0.63082  -0.80898
H    -3.53680  -1.88610   0.19709
H    -4.32086  -0.46250   0.94705
