32
Generated by autodE on: 2022-06-25. E = -765.074420 Ha
C    -2.74191  -2.51836  -1.24117
C    -1.31893  -2.15041  -0.91803
O    -0.39361  -2.93996  -1.17312
C    -1.01913  -0.84547  -0.32665
N     0.30177  -0.63597  -0.21527
N     0.90720   0.37693   0.29423
C     2.29780   0.37254   0.21686
C     3.07250  -0.47887  -0.60405
C     4.46369  -0.38568  -0.59064
C     5.11210   0.55287   0.22099
C     4.34991   1.41179   1.02216
C     2.95995   1.32733   1.01795
C    -2.00069   0.17316   0.07853
C    -3.11128  -0.17666   0.86919
C    -4.05617   0.78417   1.23531
C    -3.90726   2.11098   0.82181
C    -2.80348   2.47192   0.04055
C    -1.85675   1.51554  -0.32524
H    -2.73629  -3.27583  -2.03682
H    -3.34368  -1.65070  -1.54283
H    -3.21912  -2.96299  -0.35199
H     0.83114  -1.45275  -0.57936
H     2.60275  -1.19897  -1.27794
H     5.04871  -1.04773  -1.23362
H     6.20209   0.62080   0.22028
H     4.84346   2.15360   1.65456
H     2.35414   1.98947   1.63964
H    -3.22773  -1.20557   1.21276
H    -4.90978   0.49406   1.85241
H    -4.64633   2.86260   1.10887
H    -2.68092   3.50647  -0.28885
H    -1.00174   1.80583  -0.93657
