55
Generated by autodE on: 2022-06-25. E = -1116.570516 Ha. Imaginary frequency = -405.6 cm-1
C     1.24569  -1.86905   4.29500
C     0.38377  -0.63336   4.34988
O     0.76972   0.35186   4.96895
C    -0.98486  -0.62094   3.70569
C    -2.09456  -0.18500   4.61191
C    -2.13228   1.11946   5.13701
C    -3.16588   1.51228   5.98956
C    -4.18222   0.61585   6.33368
C    -4.15005  -0.68497   5.82391
C    -3.11262  -1.08525   4.97869
C    -0.72715   0.90233   2.31961
C    -0.23443   0.35567   1.11837
C    -1.19443   0.12370  -0.01872
C     1.18598   0.25636   0.83986
C     2.19524   0.50609   1.71743
C     3.59357   0.29336   1.42905
C     4.62127   0.38365   2.31437
C     4.45402   0.71145   3.77223
C     6.03850   0.14429   1.87775
N    -0.42937  -1.97294   1.92451
C    -0.85319  -2.86727   0.96034
C    -2.10216  -3.53488   0.94408
C    -2.42714  -4.39385  -0.10709
C    -1.53170  -4.61489  -1.15901
C    -0.28754  -3.96829  -1.14490
C     0.05111  -3.11361  -0.10102
N    -1.30171  -1.65593   2.86375
H     1.96880  -1.76512   3.47226
H     0.67444  -2.78957   4.12805
H     1.80840  -1.92366   5.23822
H    -1.35094   1.83087   4.87652
H    -3.17837   2.53154   6.38295
H    -4.99126   0.92781   6.99818
H    -4.92981  -1.40112   6.09365
H    -3.08957  -2.11587   4.61925
H    -1.77207   1.22049   2.32320
H    -0.06796   1.51590   2.93495
H    -1.36759   1.06113  -0.57859
H    -2.17525  -0.21808   0.34946
H    -0.81570  -0.61882  -0.73633
H     1.45237  -0.10958  -0.15861
H     1.94397   0.86359   2.71772
H     3.83618   0.01517   0.39605
H     4.96491  -0.04737   4.39062
H     3.40822   0.76294   4.10116
H     4.93968   1.67508   4.01056
H     6.11123  -0.07342   0.80194
H     6.66995   1.02420   2.09836
H     6.48626  -0.69793   2.43583
H    -2.81790  -3.41421   1.75974
H    -3.39342  -4.90467  -0.09760
H    -1.79530  -5.28970  -1.97624
H     0.42585  -4.13715  -1.95543
H     1.01832  -2.60839  -0.08236
H    -2.30118  -1.75514   2.65752
