34
Generated by autodE on: 2022-06-05. E = -840.609159 Ha
C    -3.18425  -3.08388   1.15306
N    -2.53441  -1.87567   0.68955
C    -1.19711  -1.71785   0.76674
O    -0.45649  -2.60980   1.23214
C    -0.61947  -0.45630   0.25851
N     0.71440  -0.47266   0.30182
C     1.69872   0.40843   0.07536
C     1.46500   1.84844  -0.22989
C     3.01465  -0.18402   0.22918
O     3.21617  -1.36281   0.53002
O     4.02106   0.68632   0.01267
C     5.34927   0.17727   0.15698
C    -1.41327   0.62235  -0.35712
C    -1.19292   0.98932  -1.69918
C    -1.95996   1.99039  -2.29669
C    -2.96615   2.63540  -1.57027
C    -3.20291   2.27074  -0.24082
C    -2.43392   1.27368   0.36220
H    -2.90128  -3.95893   0.54444
H    -2.91530  -3.30115   2.19849
H    -4.27082  -2.94862   1.08860
H    -3.09614  -1.14443   0.26812
H     1.06010  -1.39201   0.63164
H     0.64293   2.25174   0.38024
H     1.19808   2.02659  -1.28618
H     2.37389   2.42208  -0.01237
H     6.02132   1.01491  -0.06505
H     5.52198  -0.18119   1.18290
H     5.53108  -0.64779  -0.54787
H    -0.42119   0.47578  -2.27576
H    -1.77528   2.26369  -3.33824
H    -3.56617   3.41819  -2.03998
H    -3.98463   2.77249   0.33426
H    -2.60999   1.00699   1.40632
