34
Generated by autodE on: 2022-07-27. E = -840.595616 Ha
C    -1.09258   2.39025   2.54570
N    -1.13149   1.34183   1.54700
C    -0.14961   1.20260   0.63504
O     0.83830   1.95059   0.61637
C    -0.34693   0.14210  -0.39285
N     0.72616  -0.48145  -0.90427
C     1.98705  -0.68520  -0.45998
C     3.01416  -1.09724  -1.46964
C     2.28357  -0.63179   0.94836
O     1.47347  -0.52894   1.86979
O     3.61331  -0.78210   1.18670
C     4.00599  -0.84866   2.55779
C    -1.63711  -0.12177  -1.02818
C    -2.64385   0.86971  -1.10770
C    -3.84747   0.61437  -1.76038
C    -4.08379  -0.62909  -2.36005
C    -3.10068  -1.62020  -2.29041
C    -1.89797  -1.37728  -1.62562
H    -1.96577   2.28918   3.20168
H    -0.17795   2.31817   3.15537
H    -1.11160   3.38990   2.08175
H    -1.91831   0.70249   1.52901
H     0.55932  -0.88922  -1.83005
H     2.52810  -1.43078  -2.40090
H     3.68757  -0.26280  -1.73653
H     3.64542  -1.91538  -1.09380
H     3.71464   0.06637   3.09533
H     3.55024  -1.71692   3.05796
H     5.09822  -0.95044   2.55752
H    -2.47008   1.85553  -0.67520
H    -4.60504   1.39996  -1.81408
H    -5.02897  -0.82391  -2.87165
H    -3.27695  -2.60016  -2.74043
H    -1.16661  -2.18408  -1.54082
