54
Generated by autodE on: 2022-06-05. E = -1468.392114 Ha. Imaginary frequency = -187.0 cm-1
C    -1.20849   0.37944   4.13805
N    -1.16140  -0.29507   2.85451
C    -1.04445   0.41242   1.71161
O    -1.21870   1.63090   1.66584
C    -0.89623  -0.44863   0.47392
C    -2.12888  -0.59502  -0.33118
C    -3.01318   0.49763  -0.46326
C    -4.14558   0.40763  -1.27134
C    -4.43508  -0.77336  -1.96073
C    -3.58053  -1.87113  -1.82161
C    -2.44488  -1.78647  -1.01749
N    -0.00874  -1.47112   0.44483
C     1.30346  -1.56160   0.77296
C     1.99389  -2.83922   0.40268
C     1.92421  -0.67604   1.77275
O     1.47929   0.38720   2.17239
O     3.11258  -1.15537   2.16691
C     3.86300  -0.33672   3.07438
C     1.83722   0.03802  -1.01126
C     3.06532   0.51600  -0.50301
N     4.11415   0.84781  -0.11506
C     1.81484  -0.91050  -2.25191
C     2.00083  -0.00747  -3.48186
C     0.85821   0.68218  -3.57756
C    -0.00809   0.19127  -2.40659
O     0.41064  -1.18486  -2.31746
C     0.63716   0.75203  -1.11479
C     0.43288   2.11812  -0.63974
O     1.15059   2.71439   0.14672
O    -0.64506   2.67579  -1.22100
C    -0.99123   3.99933  -0.80222
H    -1.36515  -0.36665   4.92674
H    -0.27042   0.92303   4.33979
H    -2.03669   1.10179   4.16315
H    -0.88589  -1.27184   2.84277
H    -2.79479   1.42732   0.05744
H    -4.80621   1.27275  -1.36348
H    -5.32168  -0.84119  -2.59494
H    -3.80039  -2.80805  -2.33825
H    -1.82516  -2.68010  -0.92633
H    -0.22569  -2.14883  -0.28655
H     1.47378  -3.33530  -0.42878
H     3.03182  -2.64222   0.10332
H     2.02346  -3.53672   1.25651
H     4.05809   0.64879   2.63092
H     3.31698  -0.21502   4.02119
H     4.80592  -0.86822   3.24715
H     2.41907  -1.81933  -2.18353
H     2.91456   0.06770  -4.06997
H     0.58062   1.47945  -4.26592
H    -1.09125   0.28622  -2.50484
H    -1.89514   4.26753  -1.36160
H    -1.19426   4.01596   0.27799
H    -0.17968   4.70506  -1.03245
