16
Generated by autodE on: 2022-05-29. E = -438.207092 Ha
C    -2.32235   1.25505   1.26056
N    -2.58837   0.08712   0.44205
C    -1.69603  -0.66832  -0.21926
O    -1.99379  -1.65702  -0.89855
C    -0.29133  -0.27665  -0.11688
C     0.90197  -0.04198  -0.10220
C     2.32929   0.25390  -0.07761
C     2.82869   1.17307  -1.15145
O     3.03997  -0.23841   0.78511
H    -2.85778   2.13335   0.86912
H    -2.64282   1.08460   2.29978
H    -1.24813   1.47690   1.26160
H    -3.55488  -0.21993   0.34694
H     2.61283   0.73564  -2.14025
H     3.90832   1.33420  -1.03320
H     2.28911   2.13289  -1.09830
