16
Generated by autodE on: 2022-07-26. E = -546.496910 Ha
C    -2.63990   0.15253   2.34188
N    -1.51396  -0.04891   1.45061
C    -1.20045   0.85971   0.51093
O    -1.82316   1.91687   0.33574
C    -0.04348   0.56168  -0.35217
C     0.35074   1.45697  -1.36557
N     0.71085   2.17075  -2.21596
O     0.61204  -0.56613  -0.16294
C     1.64100  -1.05477  -0.78394
C     2.11861  -2.29868  -0.33804
N     2.54387  -3.33046   0.00547
H    -2.53313   1.08945   2.91052
H    -3.58892   0.20076   1.78419
H    -2.68591  -0.68652   3.04606
H    -0.96115  -0.89621   1.53040
H     2.10435  -0.50929  -1.61061
