32
Generated by autodE on: 2022-05-29. E = -984.716970 Ha. Imaginary frequency = -214.5 cm-1
C     4.31262  -2.30390   1.09572
N     3.13991  -1.45133   1.16240
C     2.69805  -0.79245   0.08059
O     3.24411  -0.83603  -1.02558
C     1.47938  -0.00025   0.30264
C     0.67858   0.84846   0.69591
C    -0.07448   1.89523   1.38121
C     0.12984   3.29731   0.89296
O    -0.80612   1.60329   2.31677
C    -1.36383   0.38785  -0.89364
C    -0.89582   1.33001  -1.84116
N    -0.49285   2.08706  -2.63022
C    -2.54516   0.70763  -0.06048
O    -2.96732   1.87053  -0.05946
N    -3.05660  -0.29097   0.67397
C    -4.10005  -0.04309   1.65136
O    -0.91656  -0.85545  -0.90900
C     0.24552  -1.22731  -1.38053
C     0.58486  -2.58835  -1.20411
N     0.92201  -3.69228  -1.04622
H     4.17698  -3.09222   0.33916
H     4.46458  -2.77030   2.07597
H     5.21106  -1.72494   0.83146
H     2.62640  -1.36574   2.03445
H    -0.55973   3.97395   1.41407
H    -0.01882   3.35643  -0.19578
H     1.17321   3.59525   1.09116
H    -2.59304  -1.19445   0.66659
H    -4.91952   0.53344   1.19972
H    -4.49179  -1.00455   2.00410
H    -3.71217   0.52441   2.51337
H     0.77491  -0.61140  -2.11193
