32
Generated by autodE on: 2022-06-03. E = -5965.679605 Ha
C     4.57597   0.70653  -0.33443
N     3.31301   0.73457   0.37286
C     2.19478   1.22279  -0.16827
O     2.13043   1.78761  -1.26476
C     0.94513   1.13481   0.72956
N     1.07061   0.15973   1.81005
C     0.27457  -1.03831   1.50539
C    -0.78105  -1.27448   2.50382
N    -1.55555  -1.50935   3.33427
C    -0.29089  -0.81407   0.06335
Br    1.07080  -1.60339  -1.19042
C    -1.56349  -1.60102  -0.31448
C    -1.64288  -3.04373   0.11331
O    -2.44670  -1.06621  -0.94491
C    -0.30482   0.71636  -0.07382
Br   -1.89081   1.37220   0.99210
C    -0.49975   1.35086  -1.46985
C    -0.59387   2.85424  -1.54453
O    -0.64847   0.65098  -2.44690
H     5.39748   0.61978   0.38827
H     4.63068  -0.14537  -1.03379
H     4.70290   1.63252  -0.91133
H     3.19456   0.21161   1.23736
H     0.82570   2.14652   1.13985
H     0.81234   0.55937   2.70793
H     0.89238  -1.94869   1.51966
H    -2.43350  -3.12330   0.87660
H    -1.95707  -3.64908  -0.74955
H    -0.70923  -3.44521   0.52510
H    -1.65630   3.13246  -1.63686
H    -0.17092   3.36642  -0.67261
H    -0.08047   3.18341  -2.45751
