16
Generated by autodE on: 2022-06-03. E = -5531.220234 Ha
C    -3.21565  -0.63536  -0.39950
C    -2.01824   0.27214  -0.41913
O    -2.10183   1.44159  -0.74613
C    -0.67484  -0.28552  -0.02180
Br   -0.61928  -2.13128   0.52306
C     0.50435   0.36452  -0.00450
Br    0.77993   2.17021  -0.49651
C     1.81537  -0.26575   0.45077
C     2.63825  -0.92058  -0.61532
O     2.14115  -0.16652   1.61445
H    -3.39228  -1.02678   0.61469
H    -3.06415  -1.50221  -1.06128
H    -4.09085  -0.06331  -0.73157
H     2.03236  -1.64384  -1.18247
H     3.51056  -1.41329  -0.16639
H     2.97434  -0.15254  -1.33197
