16
Generated by autodE on: 2022-07-27. E = -434.396023 Ha
C     1.81039   2.59481  -2.07123
N     1.16131   2.23630  -0.83026
C     0.61737   1.01379  -0.59368
O     0.63034   0.09453  -1.43667
C     0.01654   0.86740   0.72411
N    -0.56499  -0.25619   1.13652
C    -0.75086  -1.45049   0.54264
C    -1.41562  -2.47164   1.23212
N    -1.96843  -3.34652   1.78276
H     1.30471   3.44544  -2.55651
H     1.77629   1.73406  -2.74923
H     2.86456   2.87148  -1.90640
H     1.10816   2.93418  -0.09549
H     0.01467   1.68705   1.44093
H    -0.94002  -0.19246   2.08777
H    -0.37733  -1.59211  -0.46741
