16
Generated by autodE on: 2022-06-03. E = -434.398475 Ha
C    -3.39101   0.84023   0.22508
N    -2.52275   0.69134  -0.92912
C    -1.21415   0.35733  -0.90497
O    -0.53829   0.24350  -1.95124
C    -0.59451   0.12752   0.39750
N     0.68922  -0.19465   0.35519
C     1.55792  -0.46887   1.33648
C     2.88833  -0.78550   1.03488
N     4.00619  -1.05294   0.80768
H    -4.39125   1.11894  -0.12810
H    -3.03773   1.63077   0.90590
H    -3.48018  -0.09716   0.79684
H    -2.91414   0.83757  -1.85478
H    -1.09339   0.19945   1.36105
H     1.03642  -0.22762  -0.61848
H     1.21044  -0.43982   2.36970
