50
Generated by autodE on: 2022-06-12. E = -2097.328061 Ha
C     0.19389  -0.20683   4.95098
N     1.04285  -0.26855   3.77384
C     0.72539   0.40014   2.65866
O    -0.28189   1.09982   2.55860
C     1.72272   0.33528   1.46174
C     2.68351   1.54353   1.73063
F     3.63309   1.66374   0.79690
F     2.05054   2.71611   1.84049
F     3.32149   1.35953   2.90681
C     2.70270  -0.88784   1.35947
C     2.23047  -2.32880   1.54731
C     1.19261  -2.82035   0.55194
C    -0.20332  -2.23827   0.83290
C    -0.80256  -1.36012  -0.28532
C    -2.24915  -0.98850   0.16492
F    -2.81519  -0.06978  -0.62796
F    -3.04257  -2.07368   0.15168
F    -2.26050  -0.50012   1.40645
C    -0.91111  -2.23523  -1.57821
F    -1.15199  -3.51800  -1.29413
F     0.22244  -2.18634  -2.28971
F    -1.90717  -1.82801  -2.39001
C    -0.01233  -0.08786  -0.54940
C     0.93598   0.56708   0.16868
N     1.21258   1.84505  -0.53692
N     1.03476   1.42256  -1.91548
C    -0.29323   0.91195  -1.72570
C    -0.95619   0.57203  -3.05639
O    -0.32624   0.05649  -3.94964
O    -2.21270   0.95909  -3.11838
C    -2.90906   0.69229  -4.35123
O    -0.99511   2.05582  -1.08691
C    -0.04269   2.62057  -0.31922
O    -0.18925   3.57576   0.37991
H    -0.84116  -0.47300   4.68991
H     0.57105  -0.91815   5.69540
H     0.18860   0.80406   5.38969
H     1.92333  -0.76681   3.83643
H     3.49909  -0.72138   2.09687
H     3.17921  -0.80041   0.37201
H     3.13842  -2.94480   1.44894
H     1.86379  -2.49650   2.57164
H     1.13366  -3.91683   0.60303
H     1.53702  -2.58123  -0.46356
H    -0.19637  -1.64197   1.75033
H    -0.91812  -3.04716   1.02508
H     1.03791   2.25289  -2.51851
H    -3.92852   1.06359  -4.20264
H    -2.42103   1.22146  -5.18132
H    -2.91575  -0.38808  -4.55092
