50
Generated by autodE on: 2022-06-12. E = -2097.286487 Ha. Imaginary frequency = -380.2 cm-1
C     0.75497   0.79314   5.39421
N     1.45252   0.60567   4.13370
C     0.77926   0.49912   2.97924
O    -0.44698   0.55322   2.91523
C     1.62883   0.22403   1.69803
C     2.80729   1.22808   1.60248
F     2.43700   2.48893   1.85446
F     3.39516   1.18382   0.39991
F     3.77326   0.94546   2.50936
C     2.21708  -1.23202   1.81871
C     2.44629  -1.98314   0.49889
C     1.37718  -3.05024   0.22516
C    -0.08285  -2.64889   0.45295
C    -0.70383  -1.57639  -0.48741
C    -2.20795  -1.47189  -0.10682
F    -2.85726  -2.61042  -0.40304
F    -2.83823  -0.47709  -0.74240
F    -2.35190  -1.25232   1.20488
C    -0.57996  -2.06716  -1.95627
F    -0.71263  -3.39550  -2.05260
F     0.61702  -1.74150  -2.46241
F    -1.51810  -1.53533  -2.76196
C    -0.06560  -0.22867  -0.29779
C     0.73166   0.32471   0.51392
N     0.86336   2.32634  -0.27805
N     0.58246   1.96472  -1.52949
C    -0.65074   1.39631  -1.53287
C    -1.26910   1.13377  -2.87585
O    -0.57227   0.88104  -3.83282
O    -2.57964   1.24568  -2.86276
C    -3.26510   0.98976  -4.10459
O    -1.36175   2.06865  -0.56769
C    -0.39279   2.58910   0.29228
O    -0.65942   3.15501   1.31600
H     0.12213   1.69288   5.36148
H     1.49752   0.90786   6.19277
H     0.11111  -0.07010   5.62536
H     2.46300   0.52352   4.14422
H     3.15203  -1.15945   2.38538
H     1.53290  -1.80557   2.45802
H     2.52169  -1.27995  -0.34210
H     3.42016  -2.49262   0.54936
H     1.55288  -3.88891   0.91891
H     1.51842  -3.46486  -0.78375
H    -0.70441  -3.55070   0.37172
H    -0.21329  -2.27310   1.47490
H     1.33580   1.62572  -2.13028
H    -3.06164  -0.03675  -4.43910
H    -2.93547   1.70481  -4.87079
H    -4.33042   1.12007  -3.88732
