44
Generated by autodE on: 2022-05-30. E = -976.617080 Ha
C    -0.89635   2.46401   2.89324
N    -0.84919   1.34208   1.97415
C    -0.76081   1.52521   0.64470
O    -0.72070   2.66213   0.15895
C    -0.66894   0.26088  -0.22937
C     0.68491  -0.43548  -0.00776
C     1.98851   0.16561  -0.37322
C     3.15380  -0.62490  -0.30385
C     4.39600  -0.09490  -0.64217
C     4.50237   1.23885  -1.05614
C     3.35600   2.03302  -1.12785
C     2.10710   1.50313  -0.79324
N     0.62921  -1.61280   0.50231
C    -0.76606  -2.01949   0.73768
C    -1.00394  -3.43757   0.20334
C    -0.96387  -2.04897   2.20245
N    -1.11682  -2.03564   3.35345
C    -1.67370  -0.89830   0.12325
C    -2.33140  -1.21463  -1.23792
C    -3.32218  -0.07073  -1.53813
C    -2.38619   1.12203  -1.88754
C    -0.97013   0.51978  -1.73763
C    -1.20513  -0.91362  -2.24577
H    -1.77739   3.09710   2.70397
H     0.00144   3.09429   2.79521
H    -0.95053   2.07794   3.91820
H    -0.87973   0.40636   2.36277
H     3.06772  -1.66311   0.01612
H     5.28746  -0.72383  -0.58581
H     5.47689   1.65486  -1.32251
H     3.42921   3.07498  -1.44736
H     1.22986   2.14457  -0.84621
H    -2.04247  -3.74930   0.38111
H    -0.79786  -3.47063  -0.87389
H    -0.32978  -4.14246   0.70996
H    -2.43888  -0.59105   0.84568
H    -2.78492  -2.21133  -1.28601
H    -3.97595   0.13891  -0.67851
H    -3.96582  -0.33865  -2.38896
H    -2.54227   1.99631  -1.24622
H    -2.52949   1.44742  -2.92855
H    -0.18592   1.09118  -2.24578
H    -0.32891  -1.57050  -2.15582
H    -1.55382  -0.93473  -3.28896
