20
Generated by autodE on: 2022-05-30. E = -495.525533 Ha
C     3.50194  -0.87897   0.89550
C     2.69878   0.21484   0.23766
C     3.27503   1.38474  -0.27572
N     3.78527   2.35467  -0.69833
N     1.37622   0.07962   0.13813
C     0.21781  -0.09438   0.07801
C    -1.17604  -0.29270  -0.00270
C    -1.98990   0.66952  -0.64510
C    -3.36471   0.46215  -0.71796
C    -3.94376  -0.68633  -0.16505
C    -3.13565  -1.63742   0.46949
C    -1.75851  -1.45325   0.55817
H     3.21666  -1.01820   1.95266
H     3.37099  -1.84590   0.38023
H     4.56874  -0.61871   0.86342
H    -1.53500   1.56241  -1.07640
H    -3.99120   1.20689  -1.21381
H    -5.02295  -0.84014  -0.22849
H    -3.58315  -2.53472   0.90255
H    -1.12599  -2.19171   1.05300
