44
Generated by autodE on: 2022-05-30. E = -976.519324 Ha. Imaginary frequency = -276.5 cm-1
C     0.26267   2.10016   2.71729
N    -0.46849   1.19864   1.85063
C    -0.59562   1.44672   0.52277
O    -0.21331   2.52533   0.03318
C    -1.17441   0.38263  -0.32173
C     0.95679  -0.72341  -0.18487
C     2.13046   0.09193  -0.30605
C     3.03002   0.16556   0.77917
C     4.11240   1.04040   0.71849
C     4.31874   1.82618  -0.42188
C     3.43091   1.74921  -1.50111
C     2.32563   0.90305  -1.44030
N     0.56857  -1.80122   0.19749
C    -0.48168  -2.50648   0.63674
C    -0.94609  -3.73555  -0.09531
C    -0.76513  -2.35900   2.02067
N    -1.03138  -2.19660   3.14809
C    -2.04851  -0.61896   0.06943
C    -2.79167  -1.06432  -1.17536
C    -3.76841   0.10995  -1.51407
C    -2.80210   1.24928  -1.95506
C    -1.39630   0.58701  -1.81832
C    -1.71398  -0.85295  -2.25993
H    -0.18068   3.10759   2.70841
H     1.31873   2.19353   2.41004
H     0.22877   1.71199   3.74306
H    -0.68901   0.27259   2.20096
H     2.86025  -0.45436   1.66118
H     4.80432   1.10423   1.56109
H     5.17330   2.50504  -0.46715
H     3.59304   2.36491  -2.38823
H     1.61471   0.85346  -2.26544
H    -1.98777  -3.95476   0.17884
H    -0.89707  -3.57060  -1.18042
H    -0.33522  -4.62094   0.15209
H    -2.46247  -0.73040   1.07201
H    -3.27135  -2.04995  -1.12117
H    -4.39121   0.38325  -0.64974
H    -4.44251  -0.18514  -2.33297
H    -2.88236   2.15169  -1.33215
H    -2.98462   1.54474  -2.99955
H    -0.59425   1.11557  -2.34579
H    -0.85701  -1.53326  -2.16944
H    -2.11962  -0.91050  -3.28151
