51
Generated by autodE on: 2022-06-25. E = -1279.088286 Ha
C    -2.71195  -1.77747  -2.88170
O    -2.01782  -0.93534  -1.95142
C    -1.74037  -1.45585  -0.75899
O    -2.10194  -2.56361  -0.42116
C    -0.96775  -0.49163   0.17731
C    -2.05652   0.20844   1.01474
O    -3.21047   0.30435   0.64507
O    -1.59473   0.72025   2.14483
C    -2.50490   1.52192   2.91418
C    -0.17585   0.61527  -0.62404
N    -0.80465   1.92144  -0.63089
C    -1.71039   2.21053  -1.72958
C    -0.30104   2.95180   0.13205
C     0.74428   2.83298   0.97619
C     1.42445   1.51420   1.17972
C     1.26770   0.55883  -0.03373
C     2.28959   0.88986  -1.12034
N     2.34194   2.17058  -1.51827
O     3.01177   0.01534  -1.61728
C     1.38305  -0.93161   0.43199
C     2.46676  -1.14984   1.48951
C     1.59078  -1.89815  -0.78397
C     2.75795  -2.84649  -0.81902
O     0.70822  -1.98898  -1.62665
N     0.04159  -1.13678   0.98322
C    -0.24945  -2.34087   1.73223
H    -2.85744  -1.17384  -3.78478
H    -3.68239  -2.08901  -2.46979
H    -2.10609  -2.66610  -3.11029
H    -3.37116   0.92318   3.22859
H    -2.84506   2.38076   2.31818
H    -1.93897   1.86428   3.78765
H    -0.12681   0.27252  -1.66094
H    -2.54152   1.49266  -1.75191
H    -1.19436   2.17008  -2.70679
H    -2.12693   3.21814  -1.59889
H    -0.81471   3.90625  -0.00594
H     1.06402   3.69934   1.55678
H     0.99049   1.00787   2.05460
H     2.49431   1.65440   1.39534
H     1.81563   2.88947  -1.02395
H     3.03616   2.44082  -2.20891
H     2.22499  -0.61711   2.41610
H     3.43374  -0.78481   1.11882
H     2.57878  -2.21267   1.73729
H     3.70397  -2.37367  -0.53360
H     2.55841  -3.65950  -0.09970
H     2.83449  -3.28309  -1.82372
H    -0.16353  -3.27342   1.14383
H     0.42896  -2.41551   2.59533
H    -1.27524  -2.29042   2.12253
