31
Generated by autodE on: 2022-06-25. E = -821.340568 Ha
C    -2.47491  -2.15886   1.82426
O    -2.11960  -1.04188   1.00701
C    -0.81061  -0.70758   0.98194
O     0.01427  -1.33144   1.66312
C    -0.48767   0.39961   0.13086
C    -1.37097   1.01352  -0.82133
O    -2.57608   0.82038  -0.96376
O    -0.70301   1.87840  -1.64326
C    -1.49540   2.59795  -2.58595
N     0.85608   0.88012   0.21504
C     1.04974   2.31234   0.52548
C     1.89433   0.09196   0.20409
C     3.25522   0.59633   0.53356
C     1.76004  -1.35582  -0.24479
C     2.52335  -2.39183   0.52583
O     1.15286  -1.60112  -1.26944
H    -2.26452  -1.95699   2.88534
H    -3.55271  -2.30486   1.68070
H    -1.93009  -3.06399   1.51657
H    -2.26612   3.20005  -2.08074
H    -0.80312   3.25717  -3.12460
H    -1.98583   1.91439  -3.29545
H     1.50665   2.40114   1.52117
H     0.07749   2.80751   0.52974
H     1.70734   2.77730  -0.21925
H     4.00381  -0.19885   0.45458
H     3.53591   1.41500  -0.14860
H     3.27603   1.00566   1.55767
H     2.67902  -2.10170   1.57250
H     3.50928  -2.52473   0.04825
H     1.98449  -3.34670   0.46505
