36
Generated by autodE on: 2022-05-29. E = -933.820496 Ha
C     3.21398   2.70097  -0.75966
O     2.25585   1.78214  -0.21808
C     2.22191   0.55579  -0.75281
O     2.97012   0.19910  -1.64448
C     1.17043  -0.26995  -0.11777
C     0.90881  -1.56073  -0.39569
C     1.52397  -2.51896  -1.34726
C    -0.29214  -1.99276   0.46855
C    -0.03393  -3.27947   1.16294
N     0.18934  -4.26754   1.72595
C    -1.47767  -2.19435  -0.42146
N    -2.42095  -2.28232  -1.09017
N    -0.44087  -0.91535   1.42527
C    -1.72262  -0.77855   2.09187
C     0.22866   0.29990   0.91326
C    -0.71028   1.36145   0.35156
C    -1.02702   2.47696   1.13752
C    -1.91346   3.45142   0.67067
C    -2.49457   3.31905  -0.59394
C    -2.18100   2.21038  -1.38735
C    -1.29274   1.23922  -0.91864
H     3.07791   3.63767  -0.20732
H     3.02808   2.85976  -1.83173
H     4.23533   2.31887  -0.61867
H     0.74897  -2.94595  -2.00607
H     1.97401  -3.36349  -0.79832
H     2.29283  -2.03459  -1.95634
H    -1.63563  -0.02247   2.88415
H    -2.54328  -0.47685   1.41509
H    -1.99415  -1.73457   2.56433
H     0.78867   0.76490   1.73955
H    -0.57068   2.58077   2.12537
H    -2.14916   4.31658   1.29504
H    -3.18695   4.07953  -0.96280
H    -2.62673   2.10296  -2.37912
H    -1.04878   0.38413  -1.55192
