13
Generated by autodE on: 2022-05-29. E = -344.695472 Ha
C     3.38168   0.80948  -0.15016
C     1.99296   0.39734  -0.06377
C     0.82857   0.05646   0.00429
C    -0.53453  -0.40880   0.10367
O    -0.85037  -1.54141   0.41747
O    -1.41433   0.55615  -0.19113
C    -2.80338   0.19620  -0.12280
H     3.49811   1.86068   0.15797
H     4.01948   0.18157   0.49184
H     3.74217   0.71638  -1.18774
H    -3.06771  -0.12466   0.89522
H    -3.02571  -0.61491  -0.83116
H    -3.36099   1.10025  -0.39293
