23
Generated by autodE on: 2022-07-26. E = -589.047700 Ha
C    -1.51486  -1.06810  -0.73615
N    -0.22173  -1.01408  -0.03311
C     0.34425   0.11788   0.31714
C    -0.04415   1.47625  -0.01319
C     0.37206   2.47644   0.89630
C     0.07132   3.81652   0.66966
C    -0.62614   4.19213  -0.48393
C    -1.00997   3.21811  -1.41196
C    -0.72530   1.87248  -1.18664
C     0.36524  -2.26523   0.26411
C     1.63340  -2.32071   0.86097
N     2.69339  -2.36646   1.35789
C    -0.28799  -3.46346  -0.05791
N    -0.79497  -4.48833  -0.31605
H    -2.07682  -0.15299  -0.53549
H    -2.08228  -1.92407  -0.35535
H    -1.35187  -1.19187  -1.81487
H     1.22773   0.01374   0.95161
H     0.92668   2.18409   1.79077
H     0.38807   4.57286   1.39096
H    -0.85698   5.24392  -0.66709
H    -1.52904   3.50971  -2.32758
H    -0.99904   1.14144  -1.94534
