16
Generated by autodE on: 2022-05-29. E = -346.852370 Ha
C     2.51488  -0.43404   0.11278
C     1.11752   0.07121   0.11067
C     0.44547   0.86691   0.95257
C    -1.00738   0.87608   0.42710
C    -1.59168  -0.53867   0.66018
C    -0.92521  -1.32845  -0.18757
C     0.04799  -0.37914  -0.92334
O    -0.76079   0.81165  -0.99496
H     3.09995  -0.01538   0.94478
H     2.52304  -1.53555   0.20180
H     3.02814  -0.19488  -0.83473
H     0.78966   1.34969   1.86696
H    -1.63865   1.73034   0.69679
H    -2.33547  -0.79589   1.41408
H    -0.97364  -2.40891  -0.32046
H     0.41472  -0.69262  -1.90781
