22
Generated by autodE on: 2022-05-29. E = -666.179223 Ha
C    -2.50742   2.66360  -0.54657
O    -1.46770   1.69533  -0.35902
C    -1.85401   0.46721   0.03016
O    -3.02006   0.16482   0.22033
C    -0.71160  -0.43417   0.19113
N     0.50131   0.03869  -0.05009
C     1.63154   0.28714  -0.21748
C     3.03035   0.58279  -0.44653
C     3.95476  -0.56253  -0.15626
O     3.36663   1.69099  -0.83175
C    -0.74223  -1.84859   0.60102
C    -2.06823  -2.49046   0.90316
O     0.31311  -2.47762   0.68797
H    -2.00570   3.58685  -0.85902
H    -3.21003   2.33230  -1.32512
H    -3.05622   2.83024   0.39191
H     4.51814  -0.32280   0.76128
H     3.40980  -1.50481  -0.00673
H     4.67334  -0.65744  -0.98436
H    -1.89368  -3.53382   1.19636
H    -2.72654  -2.44995   0.02245
H    -2.58597  -1.95029   1.70962
