38
Generated by autodE on: 2022-05-29. E = -1013.030350 Ha. Imaginary frequency = -339.6 cm-1
C     2.29660  -0.12265  -3.29407
O     1.62775  -0.63414  -2.13595
C     2.22099  -0.41201  -0.95082
O     3.30108   0.14137  -0.84265
C     1.38608  -0.88176   0.16893
C     1.85778  -0.95836   1.56099
C     0.95263  -1.66865   2.53628
O     2.91384  -0.44244   1.91850
N     0.19091  -1.39319  -0.13181
C    -0.93300  -1.11012  -0.44579
C    -2.20091  -1.73666  -0.86364
C    -2.98676  -2.35265   0.25177
O    -2.55246  -1.67144  -2.02837
C    -0.96880   1.19313  -0.43431
C    -1.25142   1.44092  -1.88321
C    -2.05113   1.33213   0.67353
C    -2.10695   2.82501   1.06704
C    -0.95690   3.05515   1.71009
C    -0.21434   1.69758   1.69692
O    -1.33611   0.79443   1.79968
C     0.20203   1.46734   0.23708
H     1.66312  -0.38665  -4.14873
H     3.29002  -0.58179  -3.40269
H     2.40566   0.96958  -3.22627
H     0.78791  -2.71218   2.22487
H     1.40878  -1.64494   3.53393
H    -0.03144  -1.17594   2.56443
H    -2.38526  -3.13530   0.74199
H    -3.20121  -1.58398   1.01247
H    -3.92112  -2.77249  -0.14334
H    -2.02364   0.76985  -2.28552
H    -1.61947   2.47632  -2.00655
H    -0.33974   1.32946  -2.48774
H    -3.00425   0.81858   0.50557
H    -2.91015   3.51422   0.80849
H    -0.55460   3.98644   2.10797
H     0.53183   1.52013   2.47888
H     1.13585   1.83045  -0.18741
