47
Generated by autodE on: 2022-06-03. E = -3721.083721 Ha
C     1.15331   3.77498  -0.77279
N     0.78090   2.38817  -0.96950
C     1.58887   1.39843  -0.58720
O     2.75396   1.55670  -0.20080
C     0.98259  -0.02526  -0.67759
C     1.88683  -0.87957  -1.64245
O     1.37883  -1.56505  -2.53147
N     3.20499  -0.80491  -1.44231
C     4.13890  -1.53324  -2.27904
O    -0.30262   0.02446  -1.26490
C    -1.31822  -0.55739  -0.46687
C    -2.29167  -1.35944  -1.37502
C    -2.07076  -1.26761  -2.85001
O    -3.19522  -1.99020  -0.86439
C    -2.16583   0.61371   0.08564
O    -2.03496   1.75254  -0.31515
O    -3.09929   0.23305   0.93861
C    -3.96911   1.25688   1.45317
C    -0.56047  -1.47777   0.56287
C    -0.24304  -2.84310  -0.09633
C    -1.30302  -1.79815   1.86154
C     0.76194  -0.66386   0.73770
C     1.94081  -1.39957   1.33754
Br    0.38023   0.86173   2.05635
H     2.17905   3.94667  -1.12642
H     1.10505   4.05790   0.29278
H     0.46681   4.41595  -1.33995
H    -0.20741   2.15482  -1.08357
H     3.53269  -0.08955  -0.79166
H     4.11018  -1.17869  -3.32251
H     3.90162  -2.60781  -2.27925
H     5.15231  -1.39251  -1.88387
H    -2.82046  -1.87380  -3.37377
H    -2.14691  -0.21159  -3.15734
H    -1.04985  -1.58966  -3.10030
H    -4.51911   1.73579   0.63129
H    -4.66017   0.74740   2.13345
H    -3.38265   2.01161   1.99602
H     0.23295  -2.75029  -1.07714
H     0.41354  -3.42611   0.56165
H    -1.17318  -3.41291  -0.21292
H    -2.22061  -2.35156   1.62276
H    -0.66659  -2.44586   2.48289
H    -1.57387  -0.91436   2.44340
H     2.25321  -2.22685   0.68736
H     1.67046  -1.81192   2.31907
H     2.79351  -0.71967   1.46065
