47
Generated by autodE on: 2022-06-03. E = -3720.987642 Ha. Imaginary frequency = -314.1 cm-1
C     1.54682   3.88856  -0.13251
N     0.89184   2.67306  -0.56907
C     1.60120   1.57144  -0.86558
O     2.84594   1.56868  -0.92244
C     0.80960   0.33238  -1.09659
C     1.34177  -0.87034  -1.78836
O     0.60170  -1.83391  -2.04880
N     2.65315  -0.86088  -2.07066
C     3.32053  -2.03870  -2.58060
O    -0.48561   0.53516  -0.98675
C    -1.49370  -0.30330  -0.74110
C    -1.87936  -1.37380  -1.72424
C    -1.79986  -0.99672  -3.18434
O    -2.43562  -2.39744  -1.36098
C    -2.58250   0.44933  -0.07398
O    -2.46903   1.59703   0.32213
O    -3.69047  -0.28009   0.07666
C    -4.76930   0.33083   0.79741
C    -0.34663  -1.39622   1.21389
C    -0.31533  -2.84861   0.80444
C    -1.45837  -1.05765   2.17642
C     0.86001  -0.69219   1.19169
C     2.21358  -1.32570   1.04748
Br    0.95395   0.92692   2.26203
H     2.31360   4.19536  -0.85821
H     2.03835   3.75384   0.84605
H     0.79785   4.68522  -0.04742
H    -0.10432   2.56041  -0.39997
H     3.17866  -0.04805  -1.73578
H     4.34046  -1.76875  -2.88079
H     2.78528  -2.44272  -3.45242
H     3.37509  -2.83468  -1.81771
H    -1.57935  -1.88992  -3.78452
H    -2.80186  -0.62753  -3.46601
H    -1.07083  -0.20625  -3.39586
H    -5.10235   1.24661   0.28855
H    -5.57655  -0.41018   0.81415
H    -4.45502   0.57401   1.82273
H     0.30884  -3.03201  -0.07554
H     0.09081  -3.43677   1.64802
H    -1.32806  -3.20909   0.59301
H    -2.39852  -1.53293   1.87214
H    -1.18457  -1.46078   3.16873
H    -1.61853   0.01912   2.29559
H     2.19059  -2.16433   0.34121
H     2.53115  -1.72742   2.02578
H     2.97007  -0.60317   0.71533
