21
Generated by autodE on: 2022-10-21. E = -536.658760 Ha
C    -1.29891   2.43778  -0.07577
O    -0.43323   1.70143  -0.94059
C    -0.22857   0.40739  -0.55334
C     0.86029  -0.22010  -0.07274
O     2.12025   0.14066   0.23041
C     2.42533   1.53272   0.13779
C     0.38715  -1.65472   0.24347
C    -0.55181  -1.56529   1.47217
C    -1.64554  -0.94723   1.01536
C    -1.34792  -0.66605  -0.47625
O    -0.57943  -1.84608  -0.80578
H    -1.39266   3.44837  -0.49617
H    -2.30072   1.97757  -0.02017
H    -0.87760   2.49931   0.94259
H     3.47442   1.64497   0.44056
H     1.78096   2.11926   0.81305
H     2.29735   1.89670  -0.89340
H     1.16710  -2.42482   0.25037
H    -0.30281  -1.89637   2.47977
H    -2.54269  -0.63204   1.54742
H    -2.20249  -0.52032  -1.14706
