59
Generated by autodE on: 2022-06-30. E = -1947.732460 Ha
C    -3.04909  -4.27577  -8.71114
N    -1.75097  -3.62917  -8.76028
C    -1.34849  -2.79523  -7.80337
O    -2.03121  -2.43592  -6.84541
C     0.12580  -2.26539  -7.96773
C     0.01897  -0.91257  -8.51532
N    -0.13619   0.12625  -9.00428
C     0.85645  -2.50058  -6.61383
C     1.36195  -3.75787  -6.72511
N     1.21244  -4.20647  -8.07448
C     1.30109  -5.46199  -8.62878
O     1.61235  -6.47229  -8.02374
O     1.01725  -5.43752  -9.93379
C     1.09982  -6.69779 -10.61644
N     0.86569  -3.11403  -8.91158
C     2.08837  -2.51268  -9.47078
C     2.01795  -4.70916  -5.74942
Cl    3.72978  -4.98983  -6.39709
C     1.19605  -6.03164  -5.67060
C     1.88562  -7.29112  -5.24268
O    -0.01462  -5.94513  -5.76776
C     2.22149  -4.25476  -4.28707
C     0.98260  -4.14141  -3.39464
C    -0.20096  -3.34284  -3.92960
C     0.02713  -1.87263  -4.26111
C     0.96232  -1.51347  -5.45863
C     0.61724  -0.04226  -5.92849
C    -0.78406   0.48135  -5.81419
O     1.52155   0.66593  -6.33031
C     2.46861  -1.30634  -5.08814
C     2.77648  -0.66981  -3.75898
O     3.35034  -1.59269  -5.87315
H    -3.84522  -3.53079  -8.56879
H    -3.10011  -4.99884  -7.88110
H    -3.21724  -4.80570  -9.65615
H    -1.06554  -3.89482  -9.46490
H     0.84185  -6.48522 -11.66006
H     2.11892  -7.10413 -10.55113
H     0.38683  -7.41533 -10.18661
H     2.59315  -3.28113 -10.06860
H     1.80939  -1.68754 -10.13759
H     2.76919  -2.14461  -8.68477
H     1.20121  -8.13652  -5.38795
H     2.82441  -7.45126  -5.78369
H     2.12279  -7.21037  -4.16845
H     2.89123  -5.00104  -3.83832
H     2.80538  -3.33376  -4.29425
H     1.32552  -3.69891  -2.44446
H     0.62686  -5.15397  -3.14574
H    -0.99093  -3.36822  -3.16112
H    -0.62680  -3.84746  -4.80693
H     0.36945  -1.32502  -3.37177
H    -0.96196  -1.47161  -4.50106
H    -0.86063   1.40090  -6.40728
H    -1.52861  -0.25831  -6.13576
H    -0.98316   0.72057  -4.75637
H     2.09935   0.16678  -3.53631
H     3.81903  -0.32736  -3.75956
H     2.64502  -1.41537  -2.95833
