35
Generated by autodE on: 2022-06-30. E = -1229.927985 Ha
C    -0.11708   2.15588   2.85126
C     0.85912   2.35366   1.73065
O     1.23079   3.44404   1.35062
C     1.39543   1.07368   1.03157
Cl    2.68676   0.47443   2.23139
C     0.36766   0.07767   0.82473
C    -0.46252  -0.53681   0.19015
C    -1.20483  -1.02049  -0.96577
C    -0.73942  -2.45612  -1.37668
C    -0.32660  -3.37740  -0.27025
O    -0.75437  -2.78268  -2.54496
C    -2.72258  -1.13959  -0.65858
C    -3.65210  -1.27448  -1.82652
O    -3.10609  -1.12455   0.49473
C    -0.92797  -0.00099  -2.11363
C     0.54651   0.41763  -2.29713
C     1.08462   1.62926  -1.48318
C     2.06653   1.35345  -0.32296
H     0.17170   1.30762   3.48757
H    -1.10002   1.91642   2.41176
H    -0.20183   3.07684   3.44204
H    -0.25668  -4.40729  -0.64263
H     0.65618  -3.05690   0.11247
H    -1.03475  -3.30952   0.57022
H    -3.74519  -0.29461  -2.32325
H    -4.64185  -1.59375  -1.47593
H    -3.25601  -1.97731  -2.57318
H    -1.28718  -0.46501  -3.04153
H    -1.54489   0.89301  -1.93419
H     1.20428  -0.45572  -2.15216
H     0.64473   0.68094  -3.36136
H     0.24427   2.24568  -1.12320
H     1.63514   2.27268  -2.18609
H     2.72960   2.21799  -0.17985
H     2.69781   0.48719  -0.56893
