59
Generated by autodE on: 2022-06-30. E = -1947.657669 Ha. Imaginary frequency = -202.7 cm-1
C    -3.05483  -3.38265  -8.05417
N    -1.61774  -3.30148  -8.22579
C    -1.01202  -2.12819  -8.43141
O    -1.61159  -1.05061  -8.52947
C     0.49610  -2.09938  -8.58416
C     1.01279  -0.79198  -8.85922
N     1.43515   0.26432  -9.09347
C     0.98816  -2.58164  -6.22363
C     1.25520  -3.79074  -6.32924
N     0.88432  -4.29959  -8.42567
C     1.17211  -5.50473  -9.03196
O     0.99531  -6.56874  -8.46635
O     1.55942  -5.39756 -10.31075
C     1.79754  -6.62932 -11.00816
N     1.25406  -3.14869  -8.95887
C     2.66734  -2.91391  -9.32695
C     1.74337  -5.02563  -5.71142
Cl    3.30769  -5.53136  -6.56373
C     0.69540  -6.16216  -5.74176
C     1.15626  -7.56855  -5.51650
O    -0.47799  -5.85225  -5.82462
C     2.14957  -4.73491  -4.23993
C     1.01475  -4.42394  -3.25705
C     0.11666  -3.20939  -3.54021
C     0.87414  -1.89589  -3.81831
C     0.90882  -1.41420  -5.31497
C    -0.33488  -0.54754  -5.64855
C    -1.69085  -1.06866  -5.27624
O    -0.18110   0.52803  -6.19712
C     2.16134  -0.52494  -5.50591
C     2.35333   0.61882  -4.54678
O     2.99064  -0.78201  -6.35719
H    -3.38143  -2.86047  -7.14037
H    -3.33929  -4.43910  -7.97947
H    -3.57752  -2.93025  -8.91007
H    -1.01733  -4.10740  -8.05301
H     2.08785  -6.34431 -12.02593
H     2.60770  -7.19332 -10.52441
H     0.88427  -7.24081 -11.03000
H     3.13285  -3.86835  -9.57549
H     2.71402  -2.24115 -10.19076
H     3.16939  -2.45989  -8.46040
H     0.28234  -8.22807  -5.44400
H     1.80557  -7.88949  -6.34160
H     1.74832  -7.62706  -4.58935
H     2.69880  -5.61327  -3.87225
H     2.86875  -3.90399  -4.27808
H     1.50642  -4.27617  -2.28084
H     0.37329  -5.31243  -3.13870
H    -0.52170  -3.06362  -2.65547
H    -0.56764  -3.44974  -4.36288
H     1.91778  -2.00448  -3.48738
H     0.45350  -1.07603  -3.21928
H    -2.46192  -0.45082  -5.75156
H    -1.80831  -2.12057  -5.56797
H    -1.80672  -1.02147  -4.18132
H     1.41440   0.99277  -4.12281
H     2.89570   1.42744  -5.05536
H     2.98360   0.25767  -3.71669
