37
Generated by autodE on: 2022-05-30. E = -1795.320484 Ha
C     3.11501   1.91444  -1.32249
N     2.13492   1.29549  -0.45531
C     2.16412  -0.00289  -0.15049
O     3.07838  -0.78361  -0.40616
C     0.92137  -0.50220   0.67605
C     1.51383  -1.25902   1.79856
N     1.98854  -1.80173   2.70600
N     0.09648   0.59571   1.13970
C     0.35271   1.21986   2.42594
C    -1.21911   0.65479   0.55759
C    -2.26238   0.29932   1.54690
N    -3.02651   0.06810   2.38877
C    -1.51178   2.13206   0.04628
C    -2.90425   2.48516  -0.36394
O    -0.58198   2.90318   0.00060
C    -1.17274  -0.38096  -0.62718
C    -2.50056  -0.98905  -1.03877
Cl   -0.51978   0.48929  -2.10639
C    -0.11082  -1.40726  -0.11210
C    -0.73768  -2.45313   0.81288
Cl    0.62959  -2.32494  -1.47917
H     2.80885   1.84512  -2.38037
H     3.22485   2.97459  -1.05789
H     4.08377   1.41136  -1.20615
H     1.28636   1.80935  -0.21292
H     0.02395   0.59346   3.27451
H    -0.17146   2.18270   2.47550
H     1.42863   1.41858   2.52873
H    -3.05791   2.11925  -1.39328
H    -3.66234   2.01188   0.27394
H    -3.01902   3.57661  -0.36482
H    -2.32329  -1.74951  -1.81131
H    -3.16589  -0.22037  -1.45110
H    -3.00649  -1.46098  -0.18746
H    -1.50800  -3.01993   0.27855
H     0.03412  -3.15829   1.14355
H    -1.18716  -1.99136   1.70250
