12
Generated by autodE on: 2022-05-30. E = -1076.562586 Ha
C    -1.52358  -1.76560   0.31914
C    -0.65734  -0.56157   0.12296
Cl   -1.57221   0.94242   0.12300
C     0.67748  -0.54933  -0.04175
C     1.58739  -1.73672  -0.06400
Cl    1.53737   0.97081  -0.26246
H    -0.94249  -2.69547   0.31267
H    -2.06150  -1.69517   1.27858
H    -2.28263  -1.82151  -0.47804
H     2.12468  -1.78636  -1.02508
H     2.34618  -1.64890   0.73054
H     1.04056  -2.67640   0.07873
