25
Generated by autodE on: 2022-05-30. E = -718.719659 Ha
C     3.38979   1.82296  -0.39766
N     2.57894   0.79589   0.22934
C     1.46069   0.34569  -0.35742
O     1.07364   0.71448  -1.46594
C     0.74631  -0.76647   0.37158
C     1.54073  -1.68498   1.10186
N     2.25591  -2.38060   1.70645
N    -0.54945  -1.02938   0.16468
C    -1.06795  -2.40072   0.36715
C    -1.44973  -0.07703  -0.23597
C    -2.65342  -0.52221  -0.83127
N    -3.65151  -0.85093  -1.33899
C    -1.32664   1.32786   0.16665
C    -2.47677   2.23463  -0.18650
O    -0.35880   1.73400   0.80821
H     4.28512   1.98821   0.21287
H     2.83362   2.77044  -0.48397
H     3.69637   1.51267  -1.40751
H     2.79862   0.50622   1.17783
H    -1.34275  -2.81294  -0.61329
H    -1.94810  -2.36087   1.01887
H    -0.29371  -3.02900   0.81520
H    -3.41701   1.87658   0.26080
H    -2.25850   3.24690   0.17536
H    -2.61950   2.25396  -1.27897
