19
Generated by autodE on: 2022-06-10. E = -440.403461 Ha
C    -2.14696  -0.99029  -0.85314
C    -1.27284  -0.01932  -0.13378
N    -1.87872   0.95636   0.50057
O    -3.14405   1.16334   0.53567
C     0.19319  -0.11197  -0.08539
C     1.00575   1.02803   0.09331
C     2.39305   0.90853   0.16747
C     3.00243  -0.34542   0.05012
C     2.20969  -1.48053  -0.14449
C     0.82060  -1.36736  -0.21400
H    -2.72733  -1.59761  -0.13681
H    -1.56834  -1.65832  -1.50076
H    -2.88216  -0.43877  -1.46079
H    -1.28851   1.61668   1.02862
H     0.55760   2.02275   0.14558
H     3.00346   1.80456   0.30133
H     4.08987  -0.43529   0.10093
H     2.67503  -2.46425  -0.24054
H     0.21620  -2.26521  -0.35200
