23
Generated by autodE on: 2022-06-10. E = -554.982621 Ha
C     3.65578   0.88273   0.07224
N     2.23571   0.79528  -0.19958
C     1.51057  -0.28696   0.16894
O     2.04561  -1.25280   0.74137
C     0.07289  -0.23491  -0.14283
C    -0.92719  -0.97605   0.37852
C    -0.96180  -2.06454   1.38357
C    -2.21581  -0.35826  -0.22171
C    -2.39104   1.03136   0.42929
C    -1.40655   1.77357  -0.08697
C    -0.64752   0.81713  -1.03384
O    -1.73646   0.01713  -1.52521
H     3.86324   0.88164   1.15510
H     4.04440   1.81314  -0.35945
H     4.19703   0.03282  -0.37234
H     1.77505   1.58824  -0.63109
H    -1.59847  -1.76157   2.23416
H     0.03930  -2.31896   1.74971
H    -1.43046  -2.96771   0.95550
H    -3.09345  -1.01265  -0.26927
H    -3.13264   1.28113   1.18719
H    -1.11997   2.80233   0.12912
H    -0.06939   1.26448  -1.85003
