42
Generated by autodE on: 2022-06-10. E = -995.373956 Ha. Imaginary frequency = -318.7 cm-1
C    -1.03341   3.45910  -0.66289
N    -0.91383   2.02190  -0.79836
C    -1.43780   1.18257   0.14454
O    -2.17528   1.63342   1.04357
C    -1.06466  -0.22183   0.01699
C    -0.65732  -0.84119  -1.34796
C    -1.97319  -1.11210  -2.09924
C    -2.54199  -2.13411  -1.44648
C    -1.56076  -2.47268  -0.31379
O    -0.30199  -2.17652  -0.94469
C    -1.63732  -1.31541   0.71654
C    -2.75442  -1.28082   1.70460
O    -0.23257  -1.95343   1.91238
N     0.87816  -1.45716   1.41379
C     0.98363  -0.12465   1.28068
C     0.51127   0.70520   2.43665
C     1.95643   0.42679   0.31983
C     2.20717   1.81400   0.31326
C     3.05844   2.38535  -0.63327
C     3.68732   1.58518  -1.59041
C     3.45269   0.20580  -1.59412
C     2.59378  -0.36733  -0.65797
H    -0.49446   3.84423   0.22078
H    -0.61862   3.93802  -1.55942
H    -2.08849   3.75278  -0.56588
H    -0.13585   1.68056  -1.35201
H     0.15765  -0.36783  -1.90646
H    -2.35868  -0.51816  -2.92776
H    -3.51392  -2.60163  -1.60146
H    -1.58516  -3.48474   0.10320
H    -2.83017  -2.24213   2.23532
H    -2.62872  -0.47193   2.43298
H    -3.70785  -1.11022   1.17419
H     1.26730  -2.02676   0.66043
H    -0.21077   0.14052   3.03485
H     1.38286   0.94938   3.06841
H     0.05020   1.64983   2.13209
H     1.72340   2.45935   1.04542
H     3.22988   3.46403  -0.62034
H     4.35414   2.03183  -2.33136
H     3.93591  -0.43067  -2.33874
H     2.42102  -1.44319  -0.71193
