49
Generated by autodE on: 2022-10-22. E = -1365.257564 Ha. Imaginary frequency = -374.3 cm-1
C    -3.75983   3.23099   0.02763
N    -2.46349   2.62733  -0.21570
C    -2.35566   1.46593  -0.89676
O    -3.34274   0.92442  -1.41806
C    -1.01462   0.82651  -0.96900
C    -0.73786   0.15695  -2.18388
N    -0.55382  -0.45134  -3.16379
N     0.01836   1.34511  -0.18539
C     1.13916   0.63804   0.13444
C     1.66517   1.08730   1.49181
O     0.94576   1.80403   2.20303
N     2.87825   0.65940   1.83966
C     3.40718   0.87442   3.17116
C     2.18382   0.36298  -0.92413
O     3.11310  -0.42532  -0.70579
N     2.08501   1.08690  -2.04927
C     2.92391   0.84108  -3.20555
C     0.30622  -1.27513   0.62574
C     1.09949  -2.26820  -0.05619
N     1.72191  -3.11907  -0.54855
O     0.51717  -1.22656   2.00159
C     0.21987  -2.43364   2.71258
C    -1.10323  -1.31504   0.20756
O    -1.37097  -2.16569  -0.77276
C    -2.72457  -2.31595  -1.24007
O    -2.11978  -1.08665   1.02312
C    -2.14454  -0.08818   2.06102
H    -3.63404   4.06704   0.72654
H    -4.44809   2.49560   0.47053
H    -4.21801   3.61003  -0.90081
H    -1.63716   3.15751   0.03675
H    -0.30083   1.85125   0.64922
H     3.34394   0.02659   1.18783
H     4.45877   0.56432   3.19146
H     3.34122   1.93661   3.44734
H     2.84763   0.28925   3.92016
H     1.30292   1.72419  -2.15302
H     3.94790   0.61001  -2.88433
H     2.54203  -0.00688  -3.79869
H     2.93790   1.73748  -3.83811
H     0.35656  -2.20422   3.77714
H     0.91159  -3.24074   2.42039
H    -0.81702  -2.76107   2.53654
H    -3.32330  -2.84589  -0.48622
H    -3.16188  -1.33392  -1.45700
H    -2.64938  -2.91615  -2.15373
H    -1.21703   0.48570   2.11959
H    -2.30839  -0.60979   3.01335
H    -2.99596   0.57151   1.85060
