35
Generated by autodE on: 2022-10-21. E = -3617.747333 Ha
C     2.09710   4.40261   0.08998
N     1.23624   3.24910   0.27281
C     0.48496   2.78512  -0.74032
O     0.28233   3.37016  -1.80224
N    -0.19904   1.56001  -0.48325
O     0.36251   0.77638   0.57305
N     1.22236  -0.17242  -0.05836
C     2.58686   0.11123  -0.02071
O     3.37960  -0.39786  -0.78727
O     2.89742   0.91874   0.98920
C     4.27186   1.32819   1.08177
C     0.59165  -0.53589  -1.31421
C    -0.40340  -1.73929  -1.28632
O    -1.30600  -1.31615  -2.32509
C    -1.74599  -0.10739  -1.69187
C    -2.12349  -0.60158  -0.29180
O    -2.96991  -0.02458   0.56394
C    -3.91715   0.91157   0.03981
C    -1.29122  -1.63628  -0.06099
Br   -1.05762  -2.60186   1.52856
C    -0.38497   0.64887  -1.60068
H     2.98605   4.16241  -0.51766
H     1.54589   5.21102  -0.40855
H     2.42999   4.75779   1.07347
H     1.47802   2.58905   1.00675
H     4.57998   1.83808   0.15827
H     4.91832   0.45792   1.26154
H     4.31766   2.01912   1.93083
H     1.35671  -0.66659  -2.08495
H     0.04125  -2.71569  -1.50483
H    -2.51878   0.39803  -2.27827
H    -4.53213   1.23213   0.88975
H    -3.40925   1.78759  -0.39193
H    -4.55953   0.44013  -0.72022
H    -0.17199   1.17306  -2.53610
