17
Generated by autodE on: 2022-10-21. E = -2995.673508 Ha
C     3.04211   0.48628  -1.40639
O     2.08251   0.15025  -0.40023
C     0.78862   0.17168  -0.73919
C    -0.27144  -0.26050  -0.03347
Br   -0.32191  -0.99310   1.69274
C    -1.50337   0.25705  -0.80063
C    -1.52076   1.80325  -0.68289
C    -0.47174   2.21399  -1.40045
C     0.16049   0.91277  -1.95419
O    -1.01664   0.11225  -2.15039
H     4.02841   0.36961  -0.94015
H     2.92013   1.52897  -1.73937
H     2.96390  -0.19259  -2.27021
H    -2.44635  -0.27582  -0.63686
H    -2.22620   2.37880  -0.08451
H    -0.07342   3.21626  -1.55279
H     0.76588   0.98996  -2.86255
