35
Generated by autodE on: 2022-10-21. E = -3617.593559 Ha. Imaginary frequency = -184.7 cm-1
C     0.86766   4.96734   0.58996
N     0.30642   3.70525   1.02301
C     0.77052   2.53158   0.55233
O     1.71926   2.44125  -0.22881
N    -0.07572   1.49507   1.04917
O     0.28931   0.23585   1.05237
N     1.31224  -0.30496   0.41199
C     2.55876   0.29859   0.58180
O     2.92443   0.83685   1.61100
O     3.34202  -0.00360  -0.45141
C     4.70706   0.42783  -0.35530
C     0.34623   0.00790  -1.78101
C    -0.56803  -1.23868  -1.93399
O    -1.65495  -0.64980  -2.68633
C    -1.92086   0.40334  -1.73740
C    -2.11975  -0.42873  -0.45263
O    -2.83568  -0.09321   0.61635
C    -3.69550   1.04818   0.52290
C    -1.29105  -1.48401  -0.60597
Br   -0.94904  -2.88300   0.58211
C    -0.52698   1.04509  -1.64836
H     0.46381   5.77004   1.21808
H     1.96351   4.95304   0.68401
H     0.61961   5.17963  -0.46371
H    -0.51273   3.69132   1.62312
H     4.75297   1.52260  -0.26439
H     5.19874  -0.03616   0.51171
H     5.19058   0.10371  -1.28385
H     1.40553   0.04602  -2.01622
H    -0.13536  -2.10974  -2.43558
H    -2.74578   1.04930  -2.05038
H    -4.16482   1.15678   1.50819
H    -3.11804   1.95622   0.29265
H    -4.47432   0.89335  -0.23954
H    -0.33119   2.11204  -1.68688
