25
Generated by autodE on: 2022-06-08. E = -464.923947 Ha
C     2.46226  -1.43377  -0.38921
C     1.87057  -0.09240  -0.02544
O     2.59056   0.90834   0.03914
C     0.42938  -0.05669   0.24743
C    -0.37954   1.04190   0.29646
C    -0.07218   2.48492   0.12108
C    -1.80420   0.53309   0.40463
C    -2.13500  -0.07136  -1.00191
C    -1.23424  -1.33785  -1.05893
C    -0.48341  -1.28239   0.30779
C    -1.59834  -0.75200   1.22977
H     3.51924  -1.31415  -0.66131
H     2.38024  -2.12435   0.46627
H     1.90719  -1.89310  -1.22271
H    -0.35563   3.04217   1.03168
H    -0.68932   2.90113  -0.69445
H     0.98777   2.66524  -0.08779
H    -2.53539   1.26960   0.76242
H    -1.92796   0.64505  -1.81007
H    -3.20279  -0.33167  -1.05043
H    -1.83776  -2.25552  -1.12819
H    -0.53452  -1.33032  -1.90686
H    -0.00189  -2.22292   0.59954
H    -2.48957  -1.39809   1.25654
H    -1.25124  -0.55410   2.25497
