38
Generated by autodE on: 2022-07-27. E = -939.603950 Ha
N    -0.24363   1.72851  -2.85945
C     0.27575   1.36235  -1.87381
C     0.94556   0.98734  -0.70278
O     0.35235   0.21001   0.22897
C    -0.74027  -0.50088   0.27363
C    -1.50410  -0.83412  -0.93258
C    -2.90318  -0.67690  -0.95954
C    -3.62751  -1.03471  -2.09598
C    -2.97014  -1.57071  -3.20842
C    -1.58154  -1.74268  -3.18409
C    -0.84871  -1.36974  -2.05968
C    -1.09662  -0.95331   1.60660
C    -0.51943  -0.34480   2.74725
C    -0.84110  -0.79372   4.02423
C    -1.74715  -1.84827   4.19666
C    -2.32660  -2.45587   3.07687
C    -2.00723  -2.01863   1.79358
C     2.26348   1.47891  -0.35447
C     2.91845   1.04591   0.82277
C     4.17985   1.53877   1.15379
C     4.83027   2.46037   0.32470
C     4.19519   2.88602  -0.84883
C     2.93161   2.40723  -1.18736
H    -3.41487  -0.25789  -0.09158
H    -4.71049  -0.89451  -2.11364
H    -3.54017  -1.85478  -4.09589
H    -1.06653  -2.16840  -4.04792
H     0.23421  -1.50725  -2.04569
H     0.16830   0.49172   2.61873
H    -0.39167  -0.31122   4.89504
H    -2.00213  -2.19310   5.20121
H    -3.02769  -3.28359   3.20446
H    -2.44676  -2.51641   0.92903
H     2.43348   0.31557   1.47173
H     4.66482   1.19134   2.06965
H     5.82073   2.83864   0.58677
H     4.68921   3.60356  -1.50879
H     2.44860   2.75602  -2.10288
