38
Generated by autodE on: 2022-06-08. E = -939.603970 Ha
N     0.11440  -2.70319  -1.97132
C    -0.40274  -1.88634  -1.30749
C    -1.09027  -0.93072  -0.54957
O    -0.45314   0.13265  -0.01233
C     0.79705   0.46713   0.15180
C     1.88910  -0.49743  -0.01090
C     1.82761  -1.74930   0.63413
C     2.88994  -2.64401   0.52887
C     4.01650  -2.31275  -0.23249
C     4.08299  -1.07460  -0.88007
C     3.03164  -0.16600  -0.76398
C     0.99243   1.85142   0.54371
C     2.21220   2.27934   1.11667
C     2.38101   3.60593   1.50593
C     1.34401   4.53069   1.33785
C     0.12949   4.11808   0.77442
C    -0.04810   2.79687   0.37637
C    -2.52822  -0.94913  -0.37204
C    -3.17891   0.01543   0.43323
C    -4.56471  -0.00574   0.58384
C    -5.33985  -0.98681  -0.04576
C    -4.70388  -1.95287  -0.83569
C    -3.32077  -1.93837  -1.00072
H     0.95047  -2.01183   1.22900
H     2.83845  -3.60665   1.04198
H     4.84332  -3.02109  -0.32104
H     4.95876  -0.81513  -1.47885
H     3.08231   0.79930  -1.27023
H     3.01874   1.56351   1.27629
H     3.32722   3.91963   1.95226
H     1.48163   5.57046   1.64274
H    -0.68046   4.83746   0.63450
H    -0.98666   2.48583  -0.08362
H    -2.58906   0.77677   0.94518
H    -5.04490   0.75126   1.20919
H    -6.42450  -1.00165   0.08103
H    -5.29327  -2.72739  -1.33285
H    -2.84259  -2.69556  -1.62613
