21
Generated by autodE on: 2022-06-20. E = -658.269617 Ha
C     3.74241   0.15444   0.72465
N     2.55405  -0.51619   0.22926
C     1.43504   0.16757  -0.04734
O     1.31334   1.38313   0.12030
C     0.31857  -0.62916  -0.66262
C     0.64926  -1.67519  -1.55604
N     0.97590  -2.53736  -2.27060
N    -0.96839  -0.27050  -0.54221
C    -1.93248  -0.80779  -1.53088
C    -1.45598   0.50613   0.46944
C    -2.73539   1.10394   0.38022
N    -3.77821   1.62653   0.36732
C    -0.75834   0.67695   1.68750
N    -0.24480   0.79142   2.72790
H     4.12511   0.87845  -0.01155
H     3.52236   0.69700   1.65666
H     4.51477  -0.59796   0.92071
H     2.57674  -1.52177   0.08600
H    -2.88166  -0.27310  -1.44295
H    -2.09214  -1.87273  -1.31484
H    -1.52244  -0.67825  -2.53803
