66
Generated by autodE on: 2022-10-23. E = -1551.505301 Ha
C     4.83948   1.57087  -0.23513
N     3.44902   1.36007   0.11682
C     3.08791   0.58680   1.14263
O     3.88768   0.06426   1.92123
C     1.55271   0.34148   1.29243
C     1.31403   0.23903   2.75881
N     1.14818   0.21183   3.90615
N     0.77149   1.38058   0.66875
C     0.83814   2.70630   1.28548
C    -0.50059   0.92250   0.10826
C    -1.62285   1.17744   1.16156
O    -1.39055   1.32215   2.34280
O    -2.85191   1.22697   0.66494
C    -3.93136   1.35986   1.60099
C    -0.81753   1.67131  -1.20632
C     0.08152   2.60424  -1.74466
C    -0.18435   3.26134  -2.95057
C    -1.35720   2.99403  -3.65664
C    -2.25772   2.05699  -3.14165
C    -1.99226   1.40829  -1.93520
C    -0.30987  -0.67899  -0.09766
C    -1.52910  -1.42120   0.45286
C    -2.56458  -1.80042  -0.42000
C    -3.74517  -2.37681   0.05290
C    -3.92193  -2.59731   1.42099
C    -2.90532  -2.22625   2.30346
C    -1.72843  -1.64209   1.82712
C     0.00424  -1.04453  -1.58514
C     0.19873  -2.57188  -1.73419
C     1.58888  -2.82209  -1.09584
C     2.00495  -1.41501  -0.61852
C     1.44715  -0.55172  -1.75656
C     1.10487  -1.01735   0.58976
O     0.97340  -2.05642   1.52381
C     2.15353  -2.62239   2.08453
H     5.41566   1.89040   0.64556
H     5.29678   0.64792  -0.62875
H     4.89676   2.35150  -1.00347
H     2.71210   1.72314  -0.47840
H     0.07128   3.35635   0.84919
H     1.81721   3.16985   1.09772
H     0.67004   2.67582   2.37337
H    -4.84996   1.32344   1.00472
H    -3.91070   0.53186   2.32290
H    -3.85904   2.31796   2.13488
H     1.01444   2.82847  -1.23357
H     0.53943   3.98318  -3.33614
H    -1.56626   3.50432  -4.59979
H    -3.17618   1.82086  -3.68437
H    -2.70470   0.67402  -1.57065
H    -2.46384  -1.63241  -1.49121
H    -4.52987  -2.65298  -0.65548
H    -4.84348  -3.04938   1.79525
H    -3.02645  -2.38362   3.37796
H    -0.96792  -1.34407   2.54186
H    -0.71946  -0.63545  -2.29269
H     0.19331  -2.82901  -2.80355
H    -0.59258  -3.15801  -1.25358
H     1.55331  -3.56273  -0.28988
H     2.31917  -3.17379  -1.83885
H     3.07746  -1.32656  -0.41171
H     1.87232  -0.82866  -2.73232
H     1.56870   0.52454  -1.62031
H     2.82239  -3.03783   1.31551
H     2.71933  -1.89276   2.67944
H     1.81536  -3.43824   2.73797
