31
Generated by autodE on: 2022-10-23. E = -618.602847 Ha
C    -1.62321   3.15217   0.35896
O    -0.66322   2.10498   0.23956
C    -1.08926   0.87533  -0.12356
C    -0.28911  -0.20792  -0.34591
C     1.16171  -0.33151  -0.23776
C     1.76803  -1.60746  -0.17635
C     3.15283  -1.74890  -0.06889
C     3.98027  -0.62259  -0.02421
C     3.39915   0.64973  -0.08743
C     2.01627   0.79661  -0.19034
C    -1.25368  -1.38863  -0.48332
C    -1.83137  -1.66857   0.93975
C    -2.70773  -0.40897   1.20536
C    -2.53787   0.41832  -0.11362
C    -2.46273  -0.71194  -1.15501
H    -1.06089   4.05504   0.63016
H    -2.14747   3.32560  -0.59435
H    -2.35922   2.93539   1.14892
H     1.14467  -2.50237  -0.20624
H     3.58833  -2.75035  -0.01920
H     5.06404  -0.73356   0.05818
H     4.03209   1.54065  -0.05716
H     1.58355   1.79487  -0.23982
H    -0.84554  -2.27286  -0.98800
H    -1.03000  -1.79888   1.68108
H    -2.44164  -2.58489   0.93871
H    -3.76632  -0.67471   1.34597
H    -2.38570   0.16553   2.08568
H    -3.29545   1.19535  -0.26295
H    -3.36545  -1.34271  -1.16777
H    -2.24598  -0.34847  -2.17016
