54
Generated by autodE on: 2022-06-30. E = -1905.802028 Ha
C    -2.14785   1.25601   4.70129
O    -1.82635  -0.13770   4.55204
C    -1.70694  -0.60628   3.32000
O    -1.85995   0.04624   2.31181
C    -1.49099  -2.13671   3.34188
F    -2.81458  -2.53235   3.65819
C    -1.24117  -2.77926   1.97162
C    -0.06901  -2.32253   1.10437
C     1.27871  -2.31746   1.81582
C     1.40025  -1.12733   2.78704
C     1.73205  -1.47693   4.25655
C     3.12940  -2.18972   4.24396
F     3.83743  -2.00414   5.36579
F     3.89970  -1.73842   3.24159
F     2.98803  -3.51032   4.05886
C     1.88668  -0.12843   5.01170
F     2.96688   0.54473   4.58091
F     2.01663  -0.28530   6.33443
F     0.82279   0.66276   4.81742
C     0.65301  -2.34580   4.90658
C    -0.60684  -2.62448   4.48591
C    -1.22395  -3.53104   5.58916
C    -2.43965  -4.40143   5.42661
N    -0.06448  -4.23063   6.04227
C     0.75799  -3.04380   6.32476
C     2.05006  -3.39912   7.02325
C     2.62794  -2.59226   8.01461
C     3.81409  -2.98182   8.64104
C     4.43792  -4.18259   8.29420
C     3.85785  -5.00157   7.32139
C     2.67220  -4.61470   6.69593
C    -0.27541  -2.19696   7.16139
O    -0.10109  -1.38548   8.03642
O    -1.49111  -2.54374   6.71318
H    -2.10736   1.45728   5.77721
H    -1.41627   1.87537   4.16568
H    -3.15666   1.45137   4.31072
H    -2.17657  -2.62312   1.41437
H    -1.15688  -3.85953   2.16812
H    -0.02884  -3.00819   0.24371
H    -0.27262  -1.32043   0.69668
H     2.08793  -2.25469   1.07463
H     1.41419  -3.27750   2.33376
H     2.16856  -0.43118   2.43149
H     0.48335  -0.53462   2.78807
H    -2.46357  -5.11309   6.26570
H    -2.38104  -4.96462   4.48645
H    -3.35953  -3.81101   5.43575
H    -0.27314  -4.73929   6.90646
H     2.15371  -1.65793   8.30026
H     4.25180  -2.33826   9.40783
H     5.36758  -4.48225   8.78389
H     4.32953  -5.94793   7.04642
H     2.22746  -5.25750   5.93758
