54
Generated by autodE on: 2022-06-30. E = -1905.753785 Ha. Imaginary frequency = -336.8 cm-1
C    -4.71574  -1.18200   3.09088
O    -3.55442  -2.02824   3.16421
C    -2.41233  -1.44407   3.49280
O    -2.27758  -0.25848   3.70974
C    -1.23843  -2.43087   3.50146
F    -1.72840  -3.70811   3.82647
C    -0.67052  -2.55907   2.07856
C    -0.08444  -1.28928   1.44603
C     1.43382  -1.08319   1.52252
C     2.04411  -0.48377   2.79520
C     2.26813  -1.36685   4.06727
C     3.07979  -2.64117   3.71317
F     3.52657  -3.29468   4.79450
F     4.14995  -2.34291   2.95994
F     2.33252  -3.51434   3.01945
C     3.09945  -0.48663   5.04546
F     4.24301  -0.05639   4.48254
F     3.44299  -1.11996   6.16939
F     2.39144   0.59867   5.39193
C     0.98368  -1.76501   4.69031
C    -0.22214  -2.05408   4.51640
C    -1.10838  -2.29989   6.40894
C    -2.59292  -2.44584   6.38520
N    -0.27425  -3.31088   6.79587
C     0.91351  -2.80382   7.20246
C     2.08092  -3.60472   7.53861
C     3.10032  -3.06944   8.35092
C     4.21943  -3.83584   8.67408
C     4.34302  -5.14469   8.19744
C     3.33440  -5.68469   7.39124
C     2.21394  -4.92484   7.06221
C     0.67223  -1.39311   7.45396
O     1.31580  -0.51001   7.99047
O    -0.63664  -1.16666   7.02104
H    -4.91421  -0.72813   4.07228
H    -4.56487  -0.39224   2.34181
H    -5.54489  -1.83535   2.79788
H    -1.51017  -2.92466   1.46828
H     0.07701  -3.36400   2.11691
H    -0.33695  -1.33041   0.37554
H    -0.59607  -0.39426   1.83477
H     1.68374  -0.35227   0.73704
H     1.95219  -2.00821   1.22927
H     3.02746  -0.07742   2.52321
H     1.42766   0.36538   3.12261
H    -2.95529  -2.59598   7.41530
H    -2.89612  -3.29779   5.76857
H    -3.05016  -1.52673   5.99915
H    -0.41973  -4.26743   6.47830
H     3.00648  -2.04997   8.72187
H     5.00106  -3.40678   9.30532
H     5.22209  -5.74167   8.45062
H     3.42527  -6.70388   7.00884
H     1.45450  -5.35904   6.40849
