47
Generated by autodE on: 2022-06-06. E = -3701.640721 Ha
C    -0.09175   2.72900  -2.62654
C    -0.93557   2.54533  -1.40598
O    -2.00109   3.09411  -1.23131
C    -0.38918   1.61261  -0.27450
C    -0.62110   2.33586   1.00313
N    -0.65918   2.97717   1.96908
N     1.00201   1.28206  -0.44742
C     1.36289   0.10119   0.32098
C     1.70979   0.50182   1.71434
N     2.08694   0.88499   2.74259
C     2.62792  -0.57296  -0.23155
C     3.23486  -1.61092   0.49058
C     4.37134  -2.24756  -0.00854
C     4.92442  -1.84297  -1.22846
C     4.33624  -0.79418  -1.93827
C     3.19307  -0.15907  -1.44221
C     0.03305  -0.81387   0.23896
C    -0.20689  -1.41640   1.63659
C     0.15424  -2.85372   1.91571
O    -0.61573  -0.70096   2.52991
C     0.10815  -1.83483  -0.92731
C    -1.21580  -2.64052  -0.98479
C    -2.20957  -1.64988  -1.64706
C    -1.38747  -0.34904  -1.73197
C    -0.03387  -0.93845  -2.16829
C    -1.08345   0.19699  -0.30211
Br   -2.78216   0.33150   0.70710
H     0.23374   1.76806  -3.04670
H    -0.65307   3.30992  -3.36916
H     0.82266   3.27778  -2.34377
H     1.64472   2.06601  -0.33772
H     2.81999  -1.92773   1.44926
H     4.82901  -3.05972   0.56050
H     5.81570  -2.33947  -1.61882
H     4.76675  -0.46194  -2.88561
H     2.74213   0.65970  -2.00137
H     0.74793  -3.32718   1.12689
H    -0.77583  -3.42851   2.05522
H     0.70051  -2.88506   2.86960
H     1.00519  -2.45920  -0.88658
H    -1.07126  -3.54196  -1.59643
H    -1.56299  -2.97458   0.00060
H    -2.45826  -1.95982  -2.67175
H    -3.14958  -1.54149  -1.09602
H    -1.83968   0.40748  -2.38388
H    -0.13055  -1.52443  -3.09324
H     0.76422  -0.20615  -2.29526
