25
Generated by autodE on: 2022-07-27. E = -702.453754 Ha
C    -3.02550   2.90729  -1.54753
C    -1.92447   1.88855  -1.51528
O    -1.36417   1.47472  -2.53688
C    -1.49913   1.36758  -0.21610
C    -2.07666   1.78778   0.99636
N    -2.59839   2.18452   1.96314
N    -0.49017   0.45994  -0.30435
C     0.19857  -0.27617   0.55243
C    -0.12702  -0.21655   1.93974
N    -0.35758  -0.20789   3.08011
C     1.28639  -1.15764   0.11380
C     1.89699  -2.02076   1.04647
C     2.92885  -2.87169   0.65462
C     3.37181  -2.87791  -0.67079
C     2.77501  -2.02128  -1.60376
C     1.74507  -1.16636  -1.22079
H    -3.93752   2.49752  -1.08460
H    -2.73939   3.79821  -0.96576
H    -3.23325   3.19387  -2.58586
H    -0.24765   0.35842  -1.30588
H     1.55932  -2.02950   2.08403
H     3.38787  -3.53395   1.39158
H     4.18163  -3.54341  -0.97717
H     3.11950  -2.01339  -2.63985
H     1.31909  -0.50079  -1.97460
