25
Generated by autodE on: 2022-06-06. E = -702.453971 Ha
C     4.31290   0.85033   0.80540
C     2.82993   1.04122   0.67933
O     2.26105   2.09738   0.97853
C     2.02798  -0.07712   0.18393
C     2.58905  -1.32038  -0.16178
N     3.11609  -2.32918  -0.42411
N     0.69730   0.19695   0.12512
C    -0.38409  -0.45533  -0.27030
C    -0.24788  -1.74361  -0.86576
N    -0.19416  -2.79129  -1.36924
C    -1.72435   0.12229  -0.12252
C    -1.95292   1.25387   0.68800
C    -3.23272   1.79153   0.79806
C    -4.30755   1.20968   0.11546
C    -4.09235   0.08044  -0.68001
C    -2.81412  -0.46195  -0.79945
H     4.53400   0.01155   1.48482
H     4.77305   1.76933   1.18888
H     4.74864   0.59629  -0.17424
H     0.55592   1.15973   0.48057
H    -1.14292   1.71399   1.25807
H    -3.39405   2.66572   1.43218
H    -5.31013   1.63218   0.21014
H    -4.92465  -0.38250  -1.21416
H    -2.65824  -1.33922  -1.42963
