22
Generated by autodE on: 2022-06-06. E = -2999.170061 Ha
C     2.83009   0.74443   1.71748
C     2.01547   0.09247   0.62783
O     2.42713  -0.89303   0.02295
C     0.70960   0.70642   0.32828
C    -0.34549   0.17514  -0.33908
Br   -0.52018  -1.52942  -1.11046
C    -1.53541   1.09886  -0.20475
C    -1.98261   0.98158   1.29072
C    -0.79781   1.62830   2.06160
C     0.18669   2.02122   0.91538
C    -0.80369   2.45682  -0.18309
H     3.12460   1.76067   1.40750
H     2.23433   0.85238   2.63796
H     3.72963   0.14780   1.91778
H    -2.33534   0.94867  -0.93861
H    -2.91642   1.54399   1.43542
H    -2.16994  -0.06316   1.57634
H    -0.32902   0.94438   2.78289
H    -1.11847   2.52789   2.60744
H     0.96039   2.74141   1.20410
H    -0.31238   2.69518  -1.13760
H    -1.45541   3.28900   0.12279
