47
Generated by autodE on: 2022-06-06. E = -3701.603624 Ha. Imaginary frequency = -311.0 cm-1
C    -2.00096   3.19228  -1.62937
C    -0.70223   2.45365  -1.67379
O    -0.03924   2.30889  -2.68955
C    -0.20532   1.82310  -0.39744
C    -0.58335   2.49652   0.81564
N    -0.89346   3.09592   1.76159
N     1.10197   1.37763  -0.50234
C     1.63665   0.43127   0.32551
C     1.54298   0.70838   1.73396
N     1.52300   0.92170   2.87568
C     2.82102  -0.35013  -0.09257
C     3.55215  -1.06876   0.87547
C     4.64103  -1.85594   0.50706
C     5.03023  -1.93634  -0.83308
C     4.32084  -1.21860  -1.80062
C     3.22594  -0.43485  -1.43906
C    -0.24786  -0.96715   0.17183
C    -0.15594  -1.53462   1.53366
C     0.64428  -2.80658   1.69320
O    -0.66928  -0.99385   2.50845
C     0.03744  -1.84183  -1.05564
C    -1.19437  -2.79330  -1.18906
C    -2.33090  -1.82922  -1.63115
C    -1.61398  -0.45172  -1.71276
C    -0.23938  -0.89445  -2.23761
C    -1.26486  -0.03257  -0.27495
Br   -2.82163   0.37402   0.79757
H    -1.84584   4.15327  -1.11049
H    -2.35460   3.38069  -2.65030
H    -2.75512   2.63513  -1.05288
H     1.42154   1.39281  -1.47326
H     3.26456  -1.01472   1.92582
H     5.18931  -2.40692   1.27392
H     5.88458  -2.55209  -1.12232
H     4.61836  -1.26827  -2.85000
H     2.70355   0.10275  -2.23002
H     1.60330  -2.74930   1.16016
H     0.81736  -2.98995   2.76158
H     0.09160  -3.65912   1.26806
H     1.00695  -2.35141  -1.04494
H    -0.98686  -3.55224  -1.95789
H    -1.42712  -3.32071  -0.25501
H    -2.71519  -2.08654  -2.62842
H    -3.18093  -1.81522  -0.93706
H    -2.16071   0.30199  -2.29056
H    -0.31996  -1.43624  -3.19068
H     0.47140  -0.08047  -2.37638
