24
Generated by autodE on: 2022-06-16. E = -667.332019 Ha
C     2.49861  -0.95583   0.15111
C     1.19149  -0.22144   0.18967
O     1.01839   0.56023   1.40224
N    -0.17968   1.21231   1.07716
O     0.16152   1.78771  -0.25558
C     1.05396   0.91830  -0.81596
O     1.55763   1.09692  -1.89041
C    -1.08315   0.06682   0.76648
C    -2.31545   0.50210   0.01299
O    -3.16627  -0.28681  -0.33352
C    -0.15403  -1.02591   0.11813
C    -0.52268  -1.42585  -1.31188
C    -0.09669  -2.26424   1.01407
H     2.57300  -1.50381  -0.79923
H     2.57148  -1.67082   0.98032
H     3.33578  -0.24620   0.21156
H    -1.43909  -0.28472   1.74700
H    -2.42129   1.59396  -0.17872
H    -0.67282  -0.56299  -1.97680
H    -1.45359  -2.00855  -1.31164
H     0.27520  -2.05377  -1.73613
H     0.55736  -3.03440   0.57999
H    -1.10796  -2.68801   1.10902
H     0.26764  -2.01337   2.02119
