14
Generated by autodE on: 2022-06-16. E = -270.683222 Ha
C    -2.24648  -0.55139  -0.41176
C    -0.85048  -0.06203  -0.18834
C    -0.61350   1.40098  -0.43215
C     0.12416  -0.92282   0.21440
C     1.51458  -0.57740   0.46843
O     2.02482   0.53661   0.37275
H    -2.94832   0.01245   0.22776
H    -2.55367  -0.34636  -1.45250
H    -2.35702  -1.62551  -0.20860
H    -0.26833   1.89970   0.48792
H    -1.52874   1.89824  -0.78246
H     0.18559   1.55399  -1.17426
H    -0.13139  -1.97533   0.36819
H     2.14794  -1.44304   0.78083
