10
Generated by autodE on: 2022-06-16. E = -396.601721 Ha
C    -2.22074  -0.25817   0.02492
C    -0.74767  -0.24221   0.03387
O    -0.04581  -1.33946   0.26943
N     1.26544  -1.14845   0.25245
O     1.41722   0.15023  -0.00770
C     0.17985   0.81818  -0.16387
O     0.10567   2.00405  -0.40844
H    -2.58257   0.57180  -0.59817
H    -2.62221  -0.12245   1.04399
H    -2.59759  -1.21100  -0.37310
