24
Generated by autodE on: 2022-06-16. E = -667.272070 Ha. Imaginary frequency = -382.6 cm-1
C     2.52408  -1.02323   0.31176
C     1.35487  -0.11778   0.29195
O     1.01726   0.55893   1.41788
N     0.02710   1.42639   1.12803
O     0.19547   1.71973  -0.20782
C     1.00682   0.76219  -0.80931
O     1.25800   0.76224  -1.98945
C    -1.37993  -0.27572   0.81955
C    -2.37654   0.55910   0.14988
O    -2.45424   0.78099  -1.05115
C    -0.54401  -1.25440   0.21960
C    -0.66055  -1.63931  -1.23591
C    -0.11772  -2.38680   1.12902
H     2.44684  -1.72725  -0.52911
H     2.57781  -1.58108   1.25449
H     3.45183  -0.44180   0.18246
H    -1.52465  -0.34627   1.89968
H    -3.09584   1.04203   0.85209
H    -0.94637  -0.80462  -1.88108
H    -1.43455  -2.42114  -1.32714
H     0.28281  -2.07633  -1.59600
H     0.69546  -2.98156   0.69193
H    -0.97815  -3.06426   1.26691
H     0.18623  -2.02542   2.12199
