41
Generated by autodE on: 2022-06-18. E = -919.506875 Ha
C     1.69551   3.72063  -1.19003
N     0.95362   2.50815  -0.92171
C     1.46176   1.42774  -0.32085
O     2.62970   1.31454   0.07217
C     0.45341   0.27319  -0.09880
C     1.29521  -1.00680  -0.29435
O     1.72013  -1.36335  -1.37493
O     1.54389  -1.67292   0.83205
C     2.30677  -2.88189   0.71273
C    -0.20366   0.35397   1.32577
C     0.52901   1.19992   2.35840
C    -1.65603   0.78477   1.05742
C    -2.61741   0.44541   2.18837
C    -1.93171   0.13490  -0.31666
C    -2.28401  -1.35200  -0.19714
C    -3.73910  -1.71661  -0.18211
O    -1.40157  -2.19713  -0.15171
N    -0.68365   0.37294  -1.01410
C    -0.59749  -0.05257  -2.39684
H     1.74450   3.92285  -2.27155
H     2.71636   3.60537  -0.80532
H     1.22626   4.58631  -0.69699
H    -0.01808   2.41348  -1.21325
H     2.42214  -3.26806   1.73195
H     1.76818  -3.60931   0.08831
H     3.29088  -2.67420   0.26882
H    -0.24243  -0.67482   1.70300
H     0.57054   2.26007   2.06400
H     1.55859   0.84444   2.50406
H     0.01084   1.14030   3.32730
H    -1.67786   1.87299   0.88178
H    -2.60353  -0.63047   2.42705
H    -2.33957   0.99138   3.10246
H    -3.65065   0.72802   1.93433
H    -2.76052   0.64158  -0.83661
H    -4.32269  -1.02190   0.43947
H    -4.11955  -1.61443  -1.21395
H    -3.87743  -2.75337   0.15203
H    -1.46518   0.35455  -2.94042
H    -0.59254  -1.14930  -2.53281
H     0.31379   0.34695  -2.86193
