12
Generated by autodE on: 2022-06-18. E = -157.300303 Ha
C     1.95578   0.06850   0.16704
C     0.48918  -0.03877   0.45587
C    -0.48917   0.03860  -0.45590
C    -1.95579  -0.06838  -0.16702
H     2.41117   0.91193   0.71610
H     2.15065   0.21432  -0.90715
H     2.49571  -0.83771   0.49454
H     0.21226  -0.19201   1.50842
H    -0.21225   0.19175  -1.50845
H    -2.41184  -0.91031  -0.71781
H    -2.15055  -0.21627   0.90690
H    -2.49518   0.83891  -0.49247
