29
Generated by autodE on: 2022-06-18. E = -762.139957 Ha
C    -1.42672   3.38549  -0.21039
N    -1.34910   1.96681   0.05735
C    -0.30899   1.22301  -0.37622
O     0.65896   1.75966  -0.96085
C    -0.38945  -0.23290  -0.15965
C    -1.51142  -0.87097   0.47338
O    -2.55520  -0.31074   0.83145
O    -1.32376  -2.18975   0.71297
C    -2.42294  -2.90275   1.28360
N     0.63119  -0.99925  -0.72823
C     0.30841  -2.22931  -1.49199
C     1.87484  -0.58927  -0.76226
C     2.48051   0.39739   0.17647
C     3.70898   1.08431  -0.34144
O     2.06663   0.53773   1.31809
H    -1.64149   3.60332  -1.27148
H    -0.47830   3.88086   0.04528
H    -2.22853   3.82028   0.40047
H    -2.15364   1.45564   0.42122
H    -2.67684  -2.50360   2.27671
H    -2.09210  -3.94461   1.37321
H    -3.30982  -2.84534   0.63487
H    -0.72342  -2.17483  -1.85102
H     0.99756  -2.29412  -2.34224
H     0.43723  -3.10622  -0.84799
H     2.53981  -1.08127  -1.47516
H     3.48559   1.57573  -1.30101
H     4.49379   0.33313  -0.53300
H     4.06981   1.81771   0.39097
