58
Generated by autodE on: 2022-12-30. E = -1392.084359 Ha
C    -1.75229  14.74846  16.87922
N    -2.45260  14.15073  18.00001
C    -1.95622  14.16829  19.23870
O    -0.85133  14.65508  19.52088
C    -2.82173  13.47383  20.32784
O    -4.16674  13.49990  19.84257
C    -5.16172  12.95210  20.69069
C    -2.37840  11.99164  20.35771
C    -0.90384  11.67563  20.62335
C    -0.64997  11.18453  22.04682
C    -1.41039  11.90239  23.15850
C    -1.09139  13.41114  23.46131
C    -1.48995  13.50402  24.96936
O    -2.65267  13.79179  25.27439
N    -0.57086  13.13157  25.86656
C    -0.83596  13.20752  27.28773
C     0.41041  13.65066  23.17728
O     1.29577  13.21376  23.92962
N     0.70632  14.27787  22.03137
C     2.07486  14.36591  21.55901
C    -1.94339  14.41418  22.70076
C    -2.71144  14.38925  21.54499
C    -3.31514  15.70838  21.46365
C    -4.25112  16.27132  20.44376
N    -2.93304  16.46591  22.46393
N    -2.07835  15.71509  23.20592
C    -1.37276  16.36339  24.23827
C    -1.90322  17.70192  24.65604
O    -0.38495  15.85258  24.73222
H    -1.66142  15.84028  16.99975
H    -2.30992  14.53824  15.95859
H    -0.73878  14.33042  16.78661
H    -3.40164  13.80514  17.89234
H    -5.06767  13.33030  21.72316
H    -6.13264  13.26841  20.28458
H    -5.13294  11.85021  20.71252
H    -3.01641  11.45322  21.07141
H    -2.66304  11.62241  19.36221
H    -0.57764  10.89114  19.92378
H    -0.27953  12.54769  20.39709
H     0.42961  11.19581  22.26538
H    -0.95852  10.12755  22.11444
H    -2.49674  11.82439  23.01642
H    -1.18864  11.35270  24.08197
H     0.38032  13.02159  25.50686
H    -0.96547  14.25184  27.62104
H     0.00843  12.76712  27.83311
H    -1.75108  12.65429  27.54686
H    -0.03012  14.48714  21.35086
H     2.70666  14.91229  22.27538
H     2.07806  14.90056  20.60110
H     2.51402  13.36545  21.41013
H    -4.37609  17.34668  20.63199
H    -3.87590  16.13177  19.42086
H    -5.23819  15.78917  20.49552
H    -2.96701  17.62950  24.92314
H    -1.31403  18.04703  25.51413
H    -1.81987  18.42266  23.83036
