45
Generated by autodE on: 2022-12-30. E = -1051.085536 Ha
C    -0.55254  -2.79884  -4.54762
N    -0.48251  -2.83632  -3.10059
C    -0.35534  -1.75491  -2.32732
O    -0.30085  -0.58902  -2.74056
C    -0.36782  -2.03983  -0.80184
O    -0.03469  -3.38269  -0.49991
C     1.35449  -3.68747  -0.52594
C     0.46895  -1.04201  -0.12987
C     0.69236  -0.03223   0.49820
C     0.34596   1.16558   1.25241
C     1.53987   1.64510   2.10946
O     2.45313   0.85797   2.38142
N     1.47975   2.89682   2.57475
C     2.51492   3.44668   3.42689
C    -0.21948   2.26620   0.31674
O    -0.54256   3.36795   0.78809
N    -0.37846   1.96433  -0.97502
C    -0.98945   2.90150  -1.89866
C    -0.80860   0.72983   2.22827
C    -2.03721   0.05290   1.59264
C    -1.98598  -1.44861   1.19493
C    -1.82164  -1.78780  -0.30015
H     0.34615  -3.24654  -5.00050
H    -1.43447  -3.35186  -4.90369
H    -0.63019  -1.75476  -4.87336
H    -0.49374  -3.73399  -2.62307
H     1.44658  -4.76760  -0.34915
H     1.81320  -3.44207  -1.49913
H     1.89547  -3.14369   0.26716
H     0.71177   3.47549   2.23069
H     3.48636   3.48902   2.90767
H     2.22897   4.46351   3.72243
H     2.64438   2.83662   4.33431
H    -0.17770   1.02147  -1.31533
H    -0.39458   3.82426  -1.98164
H    -1.05027   2.42557  -2.88492
H    -2.00442   3.17949  -1.57265
H    -0.35892   0.06403   2.98125
H    -1.13772   1.64013   2.75012
H    -2.83089   0.15440   2.34946
H    -2.38606   0.64840   0.73195
H    -1.22552  -1.98211   1.78841
H    -2.95079  -1.88441   1.49648
H    -2.37674  -2.70535  -0.54931
H    -2.24885  -0.97596  -0.90690
