58
Generated by autodE on: 2022-12-30. E = -1391.943735 Ha. Imaginary frequency = -312.0 cm-1
C    -2.82094  14.73831  16.44984
N    -3.17643  14.14647  17.72408
C    -2.34613  14.16261  18.77379
O    -1.19252  14.60305  18.73114
C    -2.90509  13.51965  20.06236
O    -4.31728  13.68501  20.01942
C    -5.04006  13.35450  21.19666
C    -2.52183  12.00645  20.06743
C    -1.03214  11.71572  20.34014
C    -0.69999  11.07354  21.70177
C    -1.29718  11.65232  22.99077
C    -0.97899  13.15287  23.32227
C    -1.66632  13.46321  24.68616
O    -2.78460  13.98462  24.72136
N    -1.00285  13.07522  25.78106
C    -1.49388  13.38041  27.11050
C     0.54880  13.34785  23.43103
O     1.22024  12.53357  24.08196
N     1.06636  14.41129  22.80874
C     2.44236  14.81667  23.01920
C    -1.62598  13.94088  22.27369
C    -2.28724  14.15591  21.25915
C    -2.67310  16.45688  21.15711
C    -3.52013  16.84973  20.03702
N    -1.97841  16.76331  22.07276
N    -1.07514  16.37554  22.90546
C    -1.28401  16.62520  24.24922
C    -2.54336  17.33886  24.66793
O    -0.43939  16.24008  25.05808
H    -2.86123  15.84043  16.48723
H    -3.52159  14.38728  15.68182
H    -1.80127  14.44346  16.16525
H    -4.13533  13.86328  17.90147
H    -6.07905  13.66435  21.02142
H    -5.02309  12.27211  21.40552
H    -4.64419  13.88963  22.07600
H    -2.83369  11.59561  19.09595
H    -3.14742  11.51923  20.82906
H    -0.66045  11.02532  19.56698
H    -0.44770  12.63643  20.20834
H     0.39736  11.04087  21.80367
H    -1.02871  10.02039  21.67584
H    -0.92849  11.05114  23.83378
H    -2.39364  11.56186  22.98660
H    -0.06819  12.69058  25.65516
H    -1.47955  14.46747  27.29488
H    -0.85232  12.88608  27.85020
H    -2.52657  13.02400  27.23849
H     0.39547  15.13742  22.53090
H     2.54823  15.38010  23.96216
H     2.76584  15.45800  22.18870
H     3.09275  13.93401  23.06484
H    -4.29354  16.09350  19.85566
H    -3.98877  17.81916  20.26901
H    -2.90177  16.95771  19.13230
H    -2.62349  18.31559  24.16638
H    -2.54189  17.47696  25.75582
H    -3.41965  16.74098  24.37258
