32
Generated by autodE on: 2022-06-17. E = -727.169144 Ha
C     2.75902   0.80759  -0.54004
C     1.90094  -0.35522  -0.91509
O     2.12741  -1.10511  -1.84266
C     0.64766  -0.63029  -0.03691
C     0.68452  -2.07383   0.28109
N     0.76911  -3.19723   0.55656
O     0.71744   0.08638   1.18672
C    -0.48581   0.81036   1.43769
C    -0.21967   2.25504   1.29407
N     0.00943   3.39015   1.22445
C    -1.56674   0.23551   0.48286
C    -2.21455  -0.96659   1.19128
C    -2.66953   1.24278   0.14845
C    -0.69148  -0.18786  -0.76033
C    -1.29651  -1.31594  -1.59717
C    -0.42386   0.99961  -1.70303
H     3.51554   0.97151  -1.31780
H     3.25179   0.57711   0.41944
H     2.16109   1.71493  -0.37469
H    -0.76946   0.65421   2.48957
H    -1.48514  -1.73019   1.49397
H    -2.72663  -0.61697   2.09986
H    -2.96376  -1.44225   0.54435
H    -3.37456   0.79775  -0.56931
H    -3.23191   1.49325   1.06087
H    -2.28856   2.17830  -0.27941
H    -2.24521  -0.97658  -2.03866
H    -0.61220  -1.57526  -2.41855
H    -1.49262  -2.22752  -1.01994
H    -1.36536   1.31074  -2.17359
H     0.00566   1.87241  -1.19571
H     0.25718   0.70328  -2.51249
