14
Generated by autodE on: 2022-07-27. E = -491.091981 Ha
C     1.68595  -0.34470  -1.92861
C     0.78999   0.21521  -0.85850
O     0.49887   1.41086  -0.78528
C     0.32571  -0.70276   0.16687
C     0.83865  -2.01011   0.32746
N     1.25668  -3.09572   0.41715
O    -0.40835  -0.29222   1.20981
C    -1.18094   0.71490   1.41683
C    -1.70103   1.59895   0.44752
N    -2.31089   2.32100  -0.23704
H     2.63544  -0.69097  -1.48926
H     1.21322  -1.21106  -2.41700
H     1.89258   0.43826  -2.66900
H    -1.56446   0.77078   2.43888
