32
Generated by autodE on: 2022-06-17. E = -727.073716 Ha. Imaginary frequency = -127.0 cm-1
C     2.77069  -0.58366  -1.57869
C     1.96876   0.03350  -0.45970
O     1.89819   1.26069  -0.30663
C     1.26970  -0.86808   0.40995
C     1.42076  -2.26877   0.34873
N     1.53309  -3.42828   0.26238
O     0.42973  -0.48659   1.40103
C    -0.26894   0.58435   1.60223
C     0.05781   1.93746   1.30659
N     0.08333   3.10259   1.25563
C    -2.12966   0.29008  -0.04476
C    -2.83393  -0.76147   0.77948
C    -2.69562   1.68235   0.08011
C    -1.32522  -0.07168  -1.10949
C    -1.17503  -1.51239  -1.51600
C    -0.77045   0.95104  -2.05858
H     3.25726   0.21646  -2.15086
H     3.53405  -1.27382  -1.18699
H     2.11323  -1.16465  -2.24578
H    -0.99488   0.46153   2.41006
H    -2.17214  -1.59423   1.05733
H    -3.24853  -0.32686   1.70076
H    -3.67676  -1.19227   0.20971
H    -3.69320   1.69697  -0.39613
H    -2.84265   1.96797   1.13269
H    -2.08595   2.45079  -0.40847
H    -2.02387  -1.77958  -2.17556
H    -0.25377  -1.68376  -2.08928
H    -1.20182  -2.21280  -0.67177
H     0.02397   0.52230  -2.68466
H    -0.36153   1.83047  -1.53975
H    -1.56536   1.31757  -2.73413
