26
Generated by autodE on: 2022-06-01. E = -648.533637 Ha
C     4.94097   1.07098   0.69798
O     3.99969   0.07461   0.30301
C     2.69393   0.43579   0.33766
O     2.33200   1.56600   0.69185
N     1.90632  -0.59090  -0.05746
N     0.61720  -0.20998  -0.02737
C    -0.39850  -0.97573  -0.32665
C    -0.12293  -2.39217  -0.69668
C    -1.75134  -0.40493  -0.27407
C    -2.85652  -1.24300  -0.02634
C    -4.14407  -0.71256   0.05721
C    -4.35462   0.65869  -0.11539
C    -3.26626   1.49947  -0.37421
C    -1.97735   0.97611  -0.45555
H     4.88358   1.95445   0.04355
H     5.93158   0.60771   0.60733
H     4.77305   1.38657   1.73930
H     0.45342   0.76525   0.26895
H     0.25868  -2.94825   0.17648
H     0.67114  -2.42456  -1.45848
H    -1.01646  -2.89377  -1.08237
H    -2.70687  -2.31317   0.12355
H    -4.98776  -1.37579   0.26026
H    -5.36435   1.07105  -0.05622
H    -3.42378   2.56936  -0.52733
H    -1.14787   1.64530  -0.69392
