47
Generated by autodE on: 2022-06-01. E = -1350.841551 Ha. Imaginary frequency = -367.5 cm-1
C     4.11428   3.14457  -0.40924
O     2.84930   2.50849  -0.63917
C     2.31147   1.85246   0.40305
O     2.83916   1.77118   1.50096
N     1.08873   1.28076   0.12406
N     0.73086   1.20946  -1.16765
C    -0.44225   0.60879  -1.49602
C    -0.47366   0.05717  -2.89561
C    -1.71591   1.11542  -0.92186
C    -1.75630   2.03086   0.14923
C    -2.97235   2.51919   0.62349
C    -4.17797   2.10391   0.04888
C    -4.15188   1.20505  -1.02021
C    -2.93652   0.72054  -1.50343
C     0.05733  -1.22883  -0.16345
C    -1.28777  -1.70542   0.28391
F    -2.06263  -2.06638  -0.76322
F    -1.23362  -2.81137   1.08457
F    -1.97467  -0.80457   1.01037
C     0.93534  -2.19587  -0.98362
C     1.33989  -3.40168  -0.08091
C     2.19811  -2.72398   1.02603
C     2.32907  -1.25352   0.52503
C     2.29008  -1.45935  -0.99856
C     0.95675  -0.60366   0.76699
C     0.57978  -0.30282   2.12006
N     0.31194  -0.07386   3.22763
H     4.87885   2.39850  -0.14916
H     4.37524   3.64259  -1.35027
H     4.03105   3.88340   0.40064
H     1.49221   1.06480  -1.83491
H    -0.90358   0.79309  -3.59379
H    -1.09437  -0.84595  -2.93784
H     0.53526  -0.20912  -3.23558
H    -0.83070   2.34712   0.62432
H    -2.97749   3.22703   1.45570
H    -5.12996   2.48092   0.42973
H    -5.08408   0.87790  -1.48642
H    -2.94786   0.02143  -2.33792
H     0.51313  -2.48233  -1.95399
H     0.48771  -3.96379   0.31195
H     1.94994  -4.09306  -0.68080
H     3.19676  -3.17676   1.10488
H     1.73036  -2.77432   2.02031
H     3.17121  -0.69790   0.94995
H     3.10578  -2.11156  -1.34053
H     2.33053  -0.54224  -1.59206
