41
Generated by autodE on: 2022-06-17. E = -770.880414 Ha
C     5.42355   1.70737   1.24112
C     4.12340   0.95284   1.25714
C     3.52993   0.74945   2.62307
C     3.56451   0.50822   0.10600
C     2.31664  -0.22537  -0.03131
C     1.82117  -0.64318  -1.21205
C     0.50384  -1.37008  -1.42135
C     0.64399  -2.39743  -2.54929
C    -0.64074  -0.35781  -1.68736
N    -1.23624  -0.20658  -0.35903
C    -2.35707   0.56155  -0.09084
C    -2.83733   1.47822  -1.05170
C    -3.94868   2.27534  -0.76992
C    -4.61165   2.18144   0.45747
C    -4.13956   1.26767   1.40851
C    -3.03057   0.46522   1.14770
N    -0.92644  -1.28579   0.44352
C     0.00648  -1.97563  -0.11071
C     0.57361  -3.20794   0.49903
H     5.81867   1.83327   0.22231
H     5.30145   2.70764   1.69416
H     6.18553   1.18781   1.84949
H     2.59014   0.18255   2.61591
H     3.33998   1.72378   3.10716
H     4.24594   0.21873   3.27508
H     4.09594   0.71745  -0.83024
H     1.75407  -0.44456   0.88164
H     2.37513  -0.41989  -2.13260
H    -0.29196  -2.95938  -2.68936
H     0.88744  -1.89004  -3.49616
H     1.45222  -3.11185  -2.33129
H    -1.38395  -0.76887  -2.39620
H    -0.27734   0.59993  -2.08125
H    -2.34086   1.57215  -2.01769
H    -4.30086   2.97838  -1.52942
H    -5.48121   2.80683   0.67020
H    -4.64424   1.17521   2.37400
H    -2.67094  -0.24342   1.89212
H     1.67015  -3.13214   0.58135
H     0.14812  -3.38072   1.49708
H     0.36104  -4.08729  -0.13216
