23
Generated by autodE on: 2022-06-17. E = -351.521384 Ha
C     3.67232   0.88475   0.17031
C     2.57420   0.09903   0.22165
C     2.67842  -1.37413   0.52357
C     1.25259   0.67545  -0.01791
C     0.07765  -0.00264   0.00646
C    -1.20813   0.61793  -0.23915
C    -2.42199   0.01124  -0.22939
C    -2.63750  -1.44942   0.04828
C    -3.67492   0.79307  -0.50588
H     3.59327   1.95402  -0.04908
H     4.67303   0.47989   0.34518
H     2.26494  -1.97887  -0.30061
H     2.10140  -1.63670   1.42584
H     3.72351  -1.67512   0.68239
H     1.23129   1.75037  -0.23438
H     0.09057  -1.07453   0.22183
H    -1.18203   1.69294  -0.45485
H    -3.31214  -1.57809   0.91313
H    -3.14305  -1.93076  -0.80753
H    -1.71074  -2.00090   0.25261
H    -3.46741   1.85474  -0.70477
H    -4.37389   0.72749   0.34735
H    -4.21428   0.37364  -1.37421
