18
Generated by autodE on: 2022-06-17. E = -419.279472 Ha
C     4.16125   0.48410   0.21066
C     2.83127  -0.08077   0.33793
N     1.76288  -0.53454   0.44017
N     0.64395  -1.12284   0.60638
C    -0.47814  -0.43307   0.15488
C    -0.44575   0.84202  -0.45166
C    -1.62877   1.45644  -0.87018
C    -2.86609   0.82741  -0.69852
C    -2.90419  -0.43882  -0.09661
C    -1.73223  -1.06237   0.32392
H     4.10216   1.58225   0.26548
H     4.79347   0.12965   1.03981
H     4.63080   0.19904  -0.74440
H     0.50904   1.35286  -0.59458
H    -1.57838   2.44398  -1.33715
H    -3.78725   1.31348  -1.02734
H    -3.86209  -0.94638   0.04586
H    -1.75922  -2.04881   0.79257
