38
Generated by autodE on: 2022-05-29. E = -1088.065409 Ha
C    -2.57266  -0.85409  -2.15973
C    -1.46130   0.06208  -1.74465
O    -0.78521   0.66645  -2.55444
C    -1.20286   0.27076  -0.24528
C    -1.56870   1.73484   0.21427
C    -0.77920   2.69604  -0.66763
C     0.48457   2.62208  -0.23543
C     0.46220   1.61138   0.90312
O    -0.84418   1.82972   1.44550
C     0.28696   0.17037   0.29534
C     1.39288  -0.26424  -0.64233
C     2.64672   0.36380  -0.59144
C     3.70319  -0.07362  -1.39650
C     3.52777  -1.15498  -2.26156
C     2.28861  -1.80212  -2.30690
C     1.23535  -1.36363  -1.50408
C     0.03545  -0.93815   1.38324
C     1.20493  -1.69950   1.93534
O    -0.92591  -1.78130   0.68838
N    -1.94167  -0.81714   0.50237
O    -2.15962  -0.38449   1.87413
C    -0.91792  -0.39763   2.46193
O    -0.73210  -0.14175   3.61700
H    -2.65935  -0.83931  -3.25350
H    -3.51985  -0.54212  -1.69340
H    -2.37185  -1.87876  -1.81073
H    -2.63972   1.91046   0.35520
H    -1.18689   3.25552  -1.50710
H     1.37129   3.11119  -0.63416
H     1.22661   1.68877   1.68324
H     2.82312   1.19579   0.09049
H     4.66843   0.43478  -1.33947
H     4.35152  -1.49639  -2.89267
H     2.13876  -2.65582  -2.97188
H     0.28734  -1.89966  -1.53962
H     0.86131  -2.44439   2.66647
H     1.75885  -2.20338   1.13413
H     1.87875  -0.99331   2.44199
