10
Generated by autodE on: 2022-05-29. E = -396.601688 Ha
C    -2.21773  -0.27128   0.09957
C    -0.74514  -0.24522   0.06300
O    -0.02948  -1.34607   0.23753
N     1.27874  -1.14803   0.16991
O     1.41505   0.15637  -0.06263
C     0.16944   0.82335  -0.14842
O     0.08290   2.01574  -0.35444
H    -2.58165  -0.72743   1.03353
H    -2.62452  -0.84846  -0.74713
H    -2.58658   0.76084   0.03371
