29
Generated by autodE on: 2022-06-03. E = -820.107741 Ha
C    -3.46919   0.36504   2.07415
N    -2.77447   0.06049   0.84070
C    -1.44810   0.22322   0.72475
O    -0.71428   0.56012   1.67296
C    -0.88292   0.05466  -0.63122
O     0.42767   0.14299  -0.79371
C     1.40565  -0.03663   0.04618
C     2.72522   0.36585  -0.47144
C     2.77346   1.01437  -1.82789
O     3.72839   0.18092   0.21319
C     1.22638  -0.88491   1.27521
C     1.96796  -0.53088   2.52380
O     0.56369  -1.90442   1.14970
C    -1.62842   0.11040  -1.88563
C    -0.84245   0.20481  -3.16677
O    -2.86376   0.04397  -1.89093
H    -2.91832  -0.05075   2.92940
H    -3.57281   1.45221   2.23207
H    -4.47078  -0.08128   2.03964
H    -3.28795  -0.05571  -0.03644
H     2.20530   1.95794  -1.82054
H     3.82009   1.21212  -2.09049
H     2.31006   0.36312  -2.58511
H     2.02663   0.55757   2.65816
H     2.99671  -0.91630   2.44306
H     1.47309  -1.00682   3.38112
H    -0.15717   1.06574  -3.14494
H    -1.54371   0.30195  -4.00482
H    -0.22658  -0.69797  -3.30456
