29
Generated by autodE on: 2022-07-27. E = -820.107735 Ha
C    -3.53685   1.02926   1.71519
N    -2.79016   0.24026   0.75779
C    -1.47899   0.43718   0.55451
O    -0.79546   1.24034   1.21670
C    -0.87172  -0.30695  -0.57015
O     0.43262  -0.21444  -0.77111
C     1.40468   0.09440   0.03733
C     1.25843  -0.06996   1.52524
C     1.94974   0.89035   2.43819
O     0.66871  -1.06738   1.91467
C     2.70579   0.27823  -0.62976
C     2.73885   0.18483  -2.13108
O     3.70630   0.51407   0.04295
C    -1.59034  -0.90430  -1.69256
C    -0.78494  -1.36305  -2.87947
O    -2.81675  -1.06042  -1.64722
H    -4.48851   0.52635   1.92798
H    -2.96482   1.12840   2.64817
H    -3.75082   2.04361   1.33713
H    -3.27210  -0.31896   0.04966
H     1.91903   1.91246   2.03718
H     3.00738   0.59476   2.52397
H     1.48134   0.84264   3.43049
H     3.77658   0.29108  -2.47071
H     2.11766   0.97763  -2.57702
H     2.32694  -0.77860  -2.46889
H    -1.47280  -1.71959  -3.65617
H    -0.10582  -2.17944  -2.58678
H    -0.16134  -0.54562  -3.27179
