19
Generated by autodE on: 2022-06-03. E = -535.502984 Ha
C    -3.30009  -0.88053   0.94876
O    -1.94209  -0.43252   0.85473
C    -1.45614  -0.23406  -0.38181
O    -2.11350  -0.41154  -1.39364
C    -0.06069   0.20777  -0.34859
C     0.78143   0.33993  -1.38566
C     2.13448   0.70910  -0.74744
C     2.63196  -0.55048   0.00245
C     1.80139  -0.68153   1.04031
C     0.80512   0.49293   0.90383
O     1.67483   1.50581   0.36255
H    -3.51062  -0.98828   2.01915
H    -3.98173  -0.14306   0.50015
H    -3.42449  -1.84678   0.43824
H     0.59683   0.16233  -2.44452
H     2.85525   1.24318  -1.37533
H     3.45049  -1.19006  -0.32558
H     1.75327  -1.45749   1.80346
H     0.28217   0.82816   1.80436
