48
Generated by autodE on: 2022-06-03. E = -1355.623295 Ha. Imaginary frequency = -109.5 cm-1
C    -3.33329   1.59973   2.16527
N    -2.65949   1.44225   0.89309
C    -1.32288   1.48983   0.80587
O    -0.59620   1.74562   1.78212
C    -0.72846   1.22760  -0.51992
C    -1.46879   1.03527  -1.77035
C    -0.69890   1.03344  -3.06112
O    -2.69226   0.86045  -1.75100
O     0.58064   1.29834  -0.68176
C     1.61983   1.15494   0.09084
C     1.74213   1.55797   1.55950
C     1.83208   3.04698   1.76795
O     2.02793   0.75045   2.42280
C     2.91033   1.06905  -0.63990
C     2.89787   1.15164  -2.13749
O     3.93975   0.94023   0.01588
C     1.11535  -1.37572   0.40481
C     1.90946  -1.97425  -0.77365
C     1.61330  -3.49297  -0.77670
C     0.33834  -3.59743  -1.16442
C    -0.13058  -2.14134  -1.38200
O     1.08443  -1.55149  -1.87515
C    -0.18628  -1.50072   0.02423
C    -1.36941  -1.49807   0.88697
O    -1.37676  -1.23306   2.07730
O    -2.46447  -1.86825   0.20377
C    -3.68741  -1.99762   0.94008
H    -3.05581   0.79505   2.86444
H    -3.07181   2.56185   2.63222
H    -4.41638   1.56981   1.99685
H    -3.16134   1.14768   0.05312
H    -1.40694   0.92996  -3.89245
H     0.01762   0.19998  -3.07265
H    -0.11953   1.96253  -3.17080
H     1.20070   3.60449   1.06491
H     2.88415   3.33474   1.59696
H     1.56370   3.28819   2.80559
H     3.93067   1.09967  -2.50359
H     2.42839   2.09363  -2.46102
H     2.30286   0.32956  -2.55911
H     1.50579  -1.16269   1.39791
H     2.95337  -1.66810  -0.89032
H     2.31559  -4.26506  -0.46511
H    -0.29396  -4.47934  -1.25830
H    -0.98001  -1.96480  -2.04781
H    -4.02364  -1.01937   1.30930
H    -4.42162  -2.40285   0.23434
H    -3.55605  -2.68372   1.78892
