19
Generated by autodE on: 2022-07-26. E = -510.889797 Ha
C     1.85740  -2.00566   1.82279
N     1.10941  -1.22648   0.85880
C     1.21755  -1.46223  -0.45870
O     1.94264  -2.34003  -0.95016
C     0.41239  -0.61048  -1.37024
N    -0.38541   0.35462  -1.02254
N    -0.65573   0.78343   0.20850
C    -1.54874   1.82769   0.16708
C    -1.93309   2.38243   1.50814
O    -2.01332   2.28240  -0.88919
H     2.94300  -1.90401   1.66245
H     1.60719  -3.07632   1.75002
H     1.61364  -1.65230   2.83184
H     0.48100  -0.46975   1.14531
H     0.49797  -0.80879  -2.43864
H    -0.88956   0.87644  -1.76765
H    -1.74407   3.46724   1.51791
H    -1.38566   1.90128   2.32809
H    -3.01583   2.24014   1.65633
