32
Generated by autodE on: 2022-05-29. E = -3491.247213 Ha. Imaginary frequency = -318.9 cm-1
C     3.57906  -0.68001   2.01218
N     2.85364   0.05120   0.99468
C     2.41866  -0.56190  -0.11952
O     2.74848  -1.70696  -0.45696
C     1.54589   0.22851  -1.04065
N     1.15192   1.47600  -0.83053
N     0.76997   1.84500   0.39712
C     0.21084   3.11474   0.42133
C    -0.40434   3.48908   1.73912
O     0.19090   3.85290  -0.56350
C    -0.93411   0.32651   0.54194
F    -1.89355   1.17839   0.17744
C    -0.88285  -0.21273   1.97077
C    -2.01168  -1.26689   2.05099
C    -1.59214  -2.28049   1.28596
C    -0.21377  -1.83745   0.74178
O     0.26909  -1.05703   1.84811
C    -0.46693  -0.69808  -0.27544
Br   -1.32967  -1.08925  -1.92846
H     4.05822   0.03062   2.69791
H     4.35328  -1.30649   1.54978
H     2.90537  -1.33320   2.59323
H     2.32425   0.87928   1.27085
H     1.59643  -0.08390  -2.08415
H     0.76575   2.01885  -1.61523
H    -0.35722   4.57812   1.87363
H     0.08375   2.97475   2.57701
H    -1.46631   3.19285   1.72384
H    -0.79169   0.51700   2.78105
H    -2.94947  -1.13915   2.58979
H    -2.09447  -3.21394   1.03565
H     0.50176  -2.60918   0.44405
