23
Generated by autodE on: 2022-06-17. E = -351.521384 Ha
C    -3.39948   1.11461   1.22452
C    -2.49844   0.53242   0.40295
C    -2.92627  -0.15285  -0.86961
C    -1.07708   0.55955   0.74228
C    -0.07735   0.01268   0.00590
C     1.31840   0.06746   0.39017
C     2.37346  -0.45104  -0.28779
C     3.77190  -0.31309   0.24430
C     2.26476  -1.18885  -1.59199
H    -3.08521   1.61136   2.14767
H    -4.46880   1.10891   0.99558
H    -2.62798  -1.21444  -0.86897
H    -2.44670   0.30763  -1.74937
H    -4.01596  -0.10059  -1.00343
H    -0.81767   1.07046   1.67743
H    -0.32760  -0.49882  -0.92751
H     1.52956   0.58616   1.33318
H     4.41669   0.21441  -0.48154
H     3.80191   0.23373   1.19816
H     4.23284  -1.30580   0.39567
H     1.23643  -1.27756  -1.96525
H     2.68326  -2.20592  -1.49164
H     2.86940  -0.68510  -2.36683
