14
Generated by autodE on: 2022-06-17. E = -433.140520 Ha
C    -2.90722  -0.98669  -0.45834
N    -2.40597   0.24667  -1.03849
C    -1.11973   0.62694  -1.04963
O    -0.68252   1.69447  -1.48186
C    -0.15069  -0.37033  -0.55494
N     0.54805  -0.56005   0.39454
C     1.33611  -0.85055   1.38722
C     2.59986  -0.23245   1.50937
N     3.64996   0.26298   1.63455
H    -3.82519  -1.28480  -0.98124
H    -2.16890  -1.79269  -0.58449
H    -3.13012  -0.88054   0.61541
H    -3.07059   0.94936  -1.35587
H     1.00561  -1.58304   2.12842
