27
Generated by autodE on: 2022-06-02. E = -8481.664389 Ha
C    -3.86899   1.77938  -0.36594
N    -2.49330   1.34357  -0.19436
C    -2.19085   0.26876   0.53959
O    -3.02027  -0.41172   1.13764
C    -0.68947  -0.10153   0.64140
Br    0.16439   1.37525   1.65955
C    -0.50875  -1.47592   1.35603
C    -0.29560  -1.40707   2.80638
N    -0.15763  -1.43545   3.95649
O     0.56407  -2.15969   0.72070
C     1.20456  -1.33714  -0.22797
C     2.46230  -0.70730   0.39949
O     2.71434  -0.77203   1.57897
O     3.24076  -0.17636  -0.52814
C     4.46106   0.44383  -0.08305
C     0.07726  -0.37892  -0.68195
Br    0.64535   1.16977  -1.70214
Br   -1.14320  -1.45339  -1.83694
H    -4.48271   0.96929  -0.78803
H    -3.88105   2.63391  -1.05241
H    -4.31002   2.08404   0.59584
H    -1.75259   1.87908  -0.63489
H    -1.43613  -2.05023   1.20714
H     1.54801  -1.95666  -1.06756
H     4.95200   0.82131  -0.98653
H     5.09824  -0.29555   0.42188
H     4.23439   1.27048   0.60501
