13
Generated by autodE on: 2022-06-02. E = -8007.488631 Ha
C    -2.94914   0.31418  -0.95008
N    -2.50491  -1.06874  -0.98959
C    -1.35214  -1.55785  -0.50679
O    -0.99068  -2.72751  -0.61687
C    -0.48671  -0.57628   0.26463
Br   -0.73453  -0.67683   2.13906
C     0.42008   0.22895  -0.30649
Br    0.59953   0.27167  -2.19750
Br    1.58421   1.37400   0.63534
H    -2.55879   0.89893  -1.79879
H    -4.04571   0.33481  -0.99158
H    -2.63661   0.80040  -0.01707
H    -3.06221  -1.73356  -1.52344
