27
Generated by autodE on: 2022-06-02. E = -8481.551078 Ha. Imaginary frequency = -358.7 cm-1
C    -4.36546   1.09281   1.33378
N    -2.93947   1.16732   1.08187
C    -2.37399   0.39214   0.13004
O    -3.05084  -0.32414  -0.60395
C    -0.86061   0.46535   0.00664
Br   -0.05898   2.03400   0.76614
C    -0.97470  -1.31762   1.86610
C    -0.70190  -0.40334   2.91104
N    -0.72277   0.36625   3.78792
O    -0.12833  -2.04298   1.17025
C     1.02369  -1.75721   0.60157
C     2.05649  -0.95816   1.27408
O     1.90465  -0.35162   2.31730
O     3.18833  -0.98882   0.57034
C     4.26381  -0.16678   1.04559
C    -0.06211  -0.26431  -0.87850
Br    1.47034   0.51968  -1.72963
Br   -0.80725  -1.65073  -1.96893
H    -4.93492   1.29720   0.41513
H    -4.62839   1.84427   2.08824
H    -4.66232   0.09674   1.70344
H    -2.35739   1.65394   1.75329
H    -1.97597  -1.75504   1.87422
H     1.34035  -2.51786  -0.11171
H     5.08475  -0.30310   0.33293
H     4.57386  -0.48400   2.05160
H     3.95323   0.88781   1.07313
