51
Generated by autodE on: 2022-06-23. E = -1241.890490 Ha
C     1.32041   2.94872  -1.94955
N     1.47006   1.64929  -1.33393
C     1.53585   1.43994  -0.01652
O     1.58815   2.33584   0.83518
C     1.51073  -0.05338   0.41861
C     2.67275  -0.25011   1.39740
N     1.54241  -0.93437  -0.76025
C     2.80794  -1.49895  -1.19140
C     0.33988  -1.75796  -0.89145
C     0.45713  -3.19069  -0.32172
C     0.06343  -1.94691  -2.33821
N    -0.00338  -2.25990  -3.45463
C    -0.70997  -0.88088  -0.11452
O    -1.83513  -1.57131   0.35651
C    -2.80059  -2.02708  -0.58910
C    -1.20781   0.32602  -0.95215
O    -1.36656   0.20541  -2.15633
C    -1.60998   1.56759  -0.25546
C    -2.33254   2.59959  -1.06478
C    -1.27311   1.80105   1.04395
C    -1.62844   3.08311   1.72503
C    -0.48792   0.81705   1.82317
O    -0.30553   0.94653   3.02255
C     0.12618  -0.39473   1.10173
O     0.38757  -1.40661   2.03334
C    -0.65264  -1.94416   2.84826
H     0.44653   2.94574  -2.61822
H     2.21042   3.21872  -2.53996
H     1.17448   3.70292  -1.16638
H     1.42138   0.80003  -1.89710
H     2.48729   0.33461   2.30695
H     2.78262  -1.30438   1.67113
H     3.61019   0.10379   0.94716
H     3.21120  -2.26862  -0.50988
H     3.55465  -0.69864  -1.29019
H     2.68178  -1.95167  -2.18615
H     0.78880  -3.15562   0.71942
H     1.18269  -3.76302  -0.91536
H    -0.51045  -3.70650  -0.37836
H    -3.35925  -1.19258  -1.04164
H    -2.34486  -2.62904  -1.39065
H    -3.49838  -2.65877  -0.02400
H    -2.54230   2.23757  -2.07729
H    -3.28053   2.88061  -0.57913
H    -1.72823   3.51921  -1.13549
H    -2.70635   3.29092   1.63852
H    -1.10225   3.92285   1.24102
H    -1.34966   3.05761   2.78451
H    -1.53572  -1.29608   2.89979
H    -0.96226  -2.92801   2.46433
H    -0.24067  -2.06513   3.86158
