25
Generated by autodE on: 2022-06-23. E = -552.380042 Ha
C     4.02956   0.08946  -0.18282
N     2.70834  -0.49169  -0.07711
C     1.59731   0.24848  -0.32274
O     1.70543   1.44365  -0.66200
C     0.29812  -0.42209  -0.12027
C     0.20016  -1.72754   0.60177
N    -0.83436   0.20835  -0.52244
C    -0.83510   1.06647  -1.72582
C    -2.04893   0.01915   0.07330
C    -3.34724   0.29471  -0.63308
C    -2.08385  -0.32625   1.43342
N    -2.13498  -0.56344   2.58099
H     4.23730   0.44102  -1.20675
H     4.77327  -0.67125   0.08457
H     4.14669   0.95158   0.49408
H     2.62850  -1.45669   0.21573
H     0.22057  -1.65286   1.70356
H     1.02288  -2.39408   0.30111
H    -0.74209  -2.23055   0.33370
H    -1.03328   2.11005  -1.44942
H    -1.62992   0.71183  -2.39279
H     0.12271   0.98764  -2.23810
H    -3.48769   1.36494  -0.86105
H    -3.42714  -0.26373  -1.58099
H    -4.17979  -0.01862   0.01097
