65
Generated by autodE on: 2022-06-30. E = -1367.906098 Ha
C    -1.12210  -2.87024   3.21482
O    -1.31086  -2.36548   1.88648
C    -0.33336  -1.60061   1.38743
O     0.69852  -1.38629   1.98974
C    -0.75210  -0.98995   0.02849
C    -1.21876  -2.09558  -0.91220
C    -0.56372  -3.33649  -0.91150
C    -0.91594  -4.33419  -1.82398
C    -1.93757  -4.10854  -2.75087
C    -2.59841  -2.87658  -2.75733
C    -2.23966  -1.87848  -1.84802
N    -1.76675   0.03256   0.28292
C    -3.09532  -0.31329   0.75103
C    -1.16518   1.31097   0.67316
C    -1.07566   1.52388   2.20419
C    -0.59561   2.87199   2.68172
O    -1.32597   0.62762   2.99048
C    -1.94928   2.47404   0.04895
C    -1.56245   3.10402  -1.14254
C    -2.34371   4.11896  -1.70345
C    -3.52740   4.52628  -1.08215
C    -3.92241   3.91097   0.10876
C    -3.13918   2.89699   0.66571
C     0.32475   1.16578   0.23247
C     0.40873  -0.12385  -0.60441
C     0.10272   0.17912  -2.08745
C     1.75553  -0.79810  -0.58296
C     2.93321  -0.21428  -0.29291
C     4.20980  -0.90658  -0.37941
C     5.43656  -0.40341  -0.10314
C     5.69361   1.00615   0.35271
C     6.66811  -1.25583  -0.23766
H    -0.23230  -3.51458   3.26000
H    -2.02213  -3.45059   3.44872
H    -1.00986  -2.03863   3.92489
H     0.23457  -3.53374  -0.19259
H    -0.39096  -5.29215  -1.80622
H    -2.21893  -4.88912  -3.46164
H    -3.39910  -2.68805  -3.47659
H    -2.75348  -0.91807  -1.87055
H    -3.84544   0.35710   0.30191
H    -3.20429  -0.26709   1.84650
H    -3.34174  -1.33315   0.43592
H    -1.47418   3.48103   2.94890
H    -0.03355   3.41808   1.91249
H     0.01354   2.73956   3.58697
H    -0.64351   2.81406  -1.64945
H    -2.01950   4.59580  -2.63160
H    -4.13513   5.32137  -1.52049
H    -4.84215   4.22129   0.61027
H    -3.46137   2.43310   1.60078
H     0.68829   2.04433  -0.31036
H     0.95971   1.05734   1.12093
H    -0.91738   0.55820  -2.22766
H     0.81119   0.94144  -2.44290
H     0.22775  -0.71556  -2.71255
H     1.75822  -1.83920  -0.92627
H     2.94300   0.83035   0.03160
H     4.15423  -1.95300  -0.70406
H     4.78414   1.61461   0.44013
H     6.20073   1.00546   1.33397
H     6.38101   1.51583  -0.34557
H     7.20864  -1.32028   0.72398
H     7.37857  -0.81039  -0.95728
H     6.43154  -2.27714  -0.57114
