23
Generated by autodE on: 2022-06-30. E = -351.521381 Ha
C    -3.68143   0.79336  -0.34632
C    -2.55870   0.30304   0.22368
C    -2.59890  -0.39489   1.55920
C    -1.27244   0.44588  -0.45559
C    -0.07802   0.00351   0.01200
C     1.17061   0.17130  -0.70322
C     2.40235  -0.23562  -0.30462
C     3.60935   0.01273  -1.16452
C     2.68528  -0.94744   0.98782
H    -4.65644   0.69978   0.13996
H    -3.64920   1.30022  -1.31573
H    -3.62309  -0.43707   1.95583
H    -2.21480  -1.42556   1.48104
H    -1.96293   0.12227   2.29687
H    -1.29684   0.95808  -1.42505
H    -0.04624  -0.50653   0.97853
H     1.09640   0.68421  -1.66982
H     3.35485   0.53643  -2.09765
H     4.36086   0.61287  -0.62056
H     4.10847  -0.93866  -1.42256
H     3.40681  -0.36900   1.59164
H     1.79219  -1.12492   1.60055
H     3.16580  -1.92188   0.78981
