42
Generated by autodE on: 2022-07-28. E = -1016.341915 Ha
C     3.61880  -1.78391   0.43238
O     2.19920  -1.83763   0.24246
C     1.59301  -0.69138  -0.10128
O     2.19853   0.36506  -0.20574
C     0.15514  -0.90578  -0.39997
C    -0.31269  -2.17908  -0.95864
C    -1.56848  -2.70990  -0.59811
C    -2.01986  -3.90995  -1.14727
C    -1.22819  -4.60657  -2.06535
C     0.02307  -4.09421  -2.42859
C     0.47862  -2.89668  -1.88184
N    -0.67582   0.14952  -0.25437
C    -1.84389   0.33304  -1.13983
C    -0.43847   1.03267   0.76464
C     0.06311   0.54855   2.04531
C    -0.17425  -0.88337   2.49349
O     0.60174   1.32979   2.84518
C    -0.56338   2.47696   0.52076
C    -0.09892   3.02776  -0.69120
C    -0.20083   4.39704  -0.93893
C    -0.75741   5.24573   0.02350
C    -1.20997   4.71322   1.23659
C    -1.11445   3.34439   1.48473
H     3.92360  -2.79901   0.71169
H     3.87261  -1.07544   1.23387
H     4.12067  -1.47899  -0.49737
H    -2.18926  -2.18942   0.13260
H    -2.99277  -4.30706  -0.84886
H    -1.58207  -5.54683  -2.49423
H     0.64635  -4.63010  -3.14810
H     1.45057  -2.50306  -2.18322
H    -1.65122  -0.13987  -2.10862
H    -2.01486   1.40429  -1.28028
H    -2.73764  -0.10394  -0.67687
H    -0.88773  -1.44073   1.87629
H     0.77434  -1.44101   2.52309
H    -0.55242  -0.82708   3.52605
H     0.36410   2.37257  -1.43187
H     0.16754   4.80496  -1.88325
H    -0.83423   6.31856  -0.16818
H    -1.64654   5.37025   1.99265
H    -1.47898   2.93656   2.42844
