32
Generated by autodE on: 2022-06-17. E = -723.362886 Ha
C     4.14164  -0.17428   0.91690
N     2.76174   0.02355   0.52483
C     2.15241  -0.69924  -0.42587
O     2.70410  -1.59112  -1.08302
C     0.67067  -0.42050  -0.64154
C    -0.19414  -1.51512   0.05444
C    -0.80157  -2.47761  -0.96179
C    -1.19592  -0.71432   0.93106
C    -2.57772  -1.30964   1.14092
C    -1.17858   0.70223   0.27292
C    -1.59841   1.74440   1.22734
N    -1.91890   2.54244   1.99513
C    -2.09685   0.76042  -0.90153
N    -2.74643   0.79209  -1.85492
N     0.21785   0.86746  -0.10841
C     0.52466   2.02342  -0.94111
H     4.22990  -0.86692   1.77105
H     4.58989   0.78745   1.20162
H     4.70409  -0.59554   0.07353
H     2.18987   0.70680   1.01318
H     0.51072  -0.46914  -1.73458
H     0.43899  -2.09808   0.73838
H     0.00907  -2.94838  -1.53888
H    -1.37431  -3.27635  -0.46829
H    -1.46457  -1.96040  -1.67186
H    -0.72443  -0.55359   1.91052
H    -3.11262  -1.46802   0.19364
H    -2.49172  -2.28097   1.64975
H    -3.18971  -0.65008   1.77575
H     0.05521   1.96167  -1.94164
H     0.18481   2.94450  -0.44545
H     1.61227   2.09192  -1.07527
