12
Generated by autodE on: 2022-06-17. E = -157.299004 Ha
C    -1.56638  -0.59966   0.09858
C    -0.69071   0.58145  -0.19595
C     0.64984   0.63909  -0.15086
C     1.60199  -0.46381   0.20352
H    -0.99733  -1.49931   0.37342
H    -2.26456  -0.37368   0.92399
H    -2.19551  -0.84864  -0.77426
H    -1.22401   1.49801  -0.47875
H     1.12036   1.59864  -0.40055
H     2.22691  -0.17933   1.06853
H     1.09486  -1.40802   0.44830
H     2.30206  -0.65938  -0.62799
