20
Generated by autodE on: 2022-06-17. E = -565.999741 Ha
C     4.34045   0.00423   0.02542
N     2.96880  -0.29169  -0.33157
C     1.93473   0.25424   0.34548
O     2.10261   1.02300   1.30181
C     0.62293  -0.17340  -0.18009
N    -0.54757   0.23933   0.25008
C    -0.65738   1.22982   1.34769
C    -1.74161  -0.23072  -0.29371
C    -2.99422   0.22466   0.15664
N    -4.06399   0.56291   0.48770
C    -1.71427  -1.18933  -1.32473
N    -1.69311  -1.98574  -2.18014
H     5.00852  -0.56590  -0.63084
H     4.56029   1.07828  -0.08770
H     4.54535  -0.27221   1.07180
H     2.78398  -0.90542  -1.11876
H     0.61354  -0.89671  -0.99647
H    -0.08142   2.12038   1.08172
H    -1.70917   1.48698   1.49102
H    -0.24551   0.79168   2.26235
