44
Generated by autodE on: 2022-10-21. E = -1277.499175 Ha
C    -0.34437  -2.75935   1.65101
O    -0.40212  -1.35488   1.45092
C    -0.39062  -0.87483   0.13110
C    -1.47933  -1.53663  -0.76689
C    -1.42241  -1.13594  -2.25661
C    -1.84380   0.35772  -2.24228
C    -2.10786   0.63689  -0.74772
C    -2.70980  -0.72624  -0.31986
C    -0.79384   0.65965   0.10732
C    -1.12768   1.29037   1.47084
F    -0.13610   1.20021   2.37654
F    -2.21894   0.77925   2.06049
F    -1.37681   2.61167   1.31288
C     0.49871   1.32044  -0.52032
C     0.38985   2.71683  -1.08594
C     1.62638   1.17858   0.53511
O     2.23688   2.02297   1.13839
O     1.88540  -0.14281   0.62756
C     1.06591  -0.78251  -0.44055
C     1.75172  -2.08017  -0.86898
C     2.97158  -2.50141  -0.11277
O     1.29483  -2.70842  -1.80448
N     0.93027   0.23814  -1.43677
C     2.07222   0.49967  -2.30397
H    -1.32625  -3.23620   1.49729
H     0.39079  -3.25116   0.99410
H    -0.03658  -2.91422   2.69445
H    -1.52546  -2.62073  -0.61677
H    -2.16457  -1.74933  -2.79041
H    -0.44874  -1.30702  -2.71895
H    -1.09173   1.01371  -2.69085
H    -2.78698   0.51382  -2.78696
H    -2.72857   1.52424  -0.57278
H    -3.60908  -0.97683  -0.90106
H    -2.93743  -0.81880   0.74577
H     1.32267   3.00079  -1.59187
H    -0.44068   2.80375  -1.79689
H     0.22663   3.42874  -0.26779
H     3.76421  -1.75135  -0.27077
H     3.30413  -3.48456  -0.46818
H     2.76995  -2.52270   0.96864
H     2.30773  -0.41439  -2.86534
H     2.98232   0.82655  -1.76560
H     1.80126   1.27335  -3.03414
