20
Generated by autodE on: 2022-10-21. E = -552.846669 Ha
C     3.10325  -0.09288   0.20889
C     1.88785   0.79050   0.31696
O     1.95777   1.99269   0.59300
C     0.61467   0.15037   0.07642
O     0.51216  -1.15985  -0.22339
C    -0.84598  -1.49301  -0.39655
O    -1.18529  -2.63472  -0.67756
C    -1.55107  -0.27592  -0.17530
C    -3.01911  -0.07547  -0.23464
N    -0.62110   0.67987   0.10399
C    -0.92412   2.08213   0.39451
H     3.17916  -0.51965  -0.80412
H     3.99905   0.50125   0.42950
H     3.03205  -0.93737   0.91273
H    -3.43131   0.26326   0.73025
H    -3.48842  -1.03549  -0.48939
H    -3.30629   0.66196  -1.00230
H    -0.56974   2.33192   1.40151
H    -0.41565   2.72483  -0.33331
H    -2.00661   2.22594   0.33073
