24
Generated by autodE on: 2022-10-21. E = -724.636329 Ha
C     2.05187  -1.87964  -0.31044
O     0.72345  -1.96232  -0.83065
C    -0.11962  -0.93408  -0.71686
C    -0.04363   0.32798  -0.20617
C     1.03172   1.02861   0.53298
F     0.68466   2.30396   0.80898
F     2.20962   1.09535  -0.13480
F     1.33161   0.46451   1.73968
C    -1.47739   0.87079  -0.23490
C    -2.28202   0.08492   0.84572
C    -2.32635  -1.35242   0.25016
C    -1.56113  -1.19373  -1.10476
C    -2.00275   0.21753  -1.52680
H     2.63093  -1.11096  -0.84070
H     2.03409  -1.65763   0.76637
H     2.50695  -2.86399  -0.47525
H    -1.55437   1.96139  -0.16003
H    -1.78605   0.12874   1.82568
H    -3.29342   0.50449   0.95692
H    -3.35870  -1.67765   0.05506
H    -1.85183  -2.10607   0.89481
H    -1.69291  -2.02255  -1.81104
H    -3.09280   0.30868  -1.64892
H    -1.49119   0.57905  -2.43058
