19
Generated by autodE on: 2022-06-04. E = -995.131157 Ha
C     3.76062  -0.70251   0.24676
O     2.34172  -0.89354   0.30661
C     1.58226   0.04428  -0.28701
O     2.04467   1.01622  -0.85767
C     0.16158  -0.26603  -0.14701
C    -0.91619   0.49771  -0.40969
Cl   -1.03978   2.08808  -1.01460
C    -2.14014  -0.30891   0.08473
C    -2.05326  -0.32556   1.62820
C    -0.99661  -1.09672   1.89839
C    -0.45056  -1.52656   0.51815
O    -1.68006  -1.63005  -0.22761
H     4.20362  -1.55534   0.77400
H     4.10371  -0.68181  -0.79799
H     4.04473   0.23835   0.74065
H    -3.10112  -0.06563  -0.37943
H    -2.70480   0.23637   2.29577
H    -0.54075  -1.34780   2.85527
H     0.14843  -2.44002   0.46517
