40
Generated by autodE on: 2022-06-04. E = -1640.110923 Ha. Imaginary frequency = -298.0 cm-1
C     3.58647   1.85827  -2.33462
O     3.03273   0.87205  -1.45394
C     2.46286   1.33298  -0.32835
O     2.41379   2.51358  -0.03782
C     1.96049   0.23771   0.50272
C     1.39658   0.29581   1.72627
Cl    0.98607   1.63017   2.70004
C     1.09640  -1.15243   2.12586
O     2.22102  -1.80828   1.50261
C     1.97293  -1.26830   0.18158
C     0.51608  -1.76275  -0.01867
C    -0.05117  -1.64993   1.22782
N    -1.52531   0.22315   0.86395
C    -2.69643  -0.52345   0.70754
C    -3.35355  -0.88675  -0.48930
C    -4.59843  -1.51171  -0.42349
C    -5.18567  -1.82371   0.80694
C    -4.52902  -1.48055   1.99685
C    -3.30529  -0.82712   1.94953
O    -0.86038   0.65128  -0.17300
N    -0.72100  -0.20090  -1.21830
C    -0.01936   0.45111  -2.22517
O     0.18614   1.64874  -2.32365
O     0.35482  -0.47127  -3.12183
C     1.01976   0.00250  -4.29932
H     2.79240   2.51445  -2.71741
H     4.34061   2.46180  -1.80943
H     4.05208   1.30397  -3.15721
H     1.01818  -1.35937   3.19691
H     2.70890  -1.60560  -0.55220
H     0.20308  -2.39413  -0.84410
H    -0.93516  -2.15087   1.60826
H    -2.89974  -0.68071  -1.45330
H    -5.10897  -1.77396  -1.35282
H    -6.15081  -2.33363   0.84013
H    -4.98271  -1.71310   2.96254
H    -2.79088  -0.52821   2.86459
H     2.02299   0.37628  -4.05413
H     1.09830  -0.86289  -4.96767
H     0.43608   0.80070  -4.77961
