28
Generated by autodE on: 2022-06-02. E = -691.408480 Ha
C    -2.81686  -2.27159  -0.33206
C    -1.38845  -1.82290  -0.53378
O    -0.48699  -2.65310  -0.66030
C    -1.17424  -0.37398  -0.56708
C    -0.09565   0.40760  -0.26382
C     1.28313   0.15219   0.13215
C     1.95838   1.12388   0.90688
C     3.27228   0.91983   1.32374
C     3.95228  -0.24665   0.95742
C     3.30426  -1.20875   0.17550
C     1.98456  -1.01777  -0.23169
C    -0.67873   1.85443  -0.25672
C    -1.58770   1.96757   0.98313
C    -2.64501   1.20289   0.69483
C    -2.34977   0.63648  -0.71056
O    -1.64975   1.73909  -1.30268
H    -3.40951  -2.03533  -1.23164
H    -3.28732  -1.74192   0.51152
H    -2.84274  -3.35513  -0.15849
H     1.44514   2.04013   1.20270
H     3.77022   1.67740   1.93310
H     4.98582  -0.40199   1.27566
H     3.83331  -2.11728  -0.12186
H     1.47696  -1.76871  -0.83205
H     0.03313   2.66381  -0.44383
H    -1.34072   2.51229   1.89352
H    -3.51281   0.95028   1.30303
H    -3.20279   0.31690  -1.31676
