22
Generated by autodE on: 2022-07-27. E = -571.035022 Ha
C    -1.58701   1.01125  -1.49389
C    -0.88968  -0.25393  -1.02068
O    -1.01508  -1.27209  -1.70672
C    -0.22312  -0.28583   0.28468
C    -0.06241  -1.50747   1.07766
C    -0.67169  -2.80202   0.59820
O     0.57385  -1.49405   2.13833
N     0.24331   0.89792   0.83763
C     0.06736   1.20502   2.27706
C     0.81790   1.84161   0.11335
C     1.32447   1.61056  -1.18498
N     1.79734   1.47107  -2.24151
H    -1.12608   1.36278  -2.42964
H    -2.62016   0.71552  -1.73224
H    -1.60891   1.83788  -0.77285
H    -1.71750  -2.67762   0.28431
H    -0.60121  -3.53053   1.41722
H    -0.12079  -3.17980  -0.27560
H    -0.12337   2.28196   2.36536
H     0.98182   0.94567   2.82127
H    -0.78017   0.63687   2.66798
H     0.95015   2.83360   0.54962
