39
Generated by autodE on: 2022-05-31. E = -1138.705925 Ha
C     2.69299   3.24715   0.13695
N     2.08777   2.09531  -0.50163
C     1.83945   0.96766   0.17023
O     2.17552   0.76859   1.33783
C     1.12288  -0.13023  -0.65911
C     2.14199  -1.19320  -1.13488
C     3.04416  -1.81540  -0.11730
O     2.15076  -1.49835  -2.31093
N     0.48126   0.46755  -1.82009
O    -0.74799   0.98476  -1.31952
C    -1.27675   0.13731  -0.29689
C    -1.87714   1.00340   0.81486
O    -2.61463   0.49317   1.66152
N    -1.51553   2.29156   0.78346
C    -1.92719   3.26727   1.77135
C    -2.24861  -0.90872  -0.93704
C    -2.73752  -1.87662   0.12387
C    -1.69868  -2.68078   0.38140
C    -0.57656  -2.17695  -0.50724
O    -1.28088  -1.70149  -1.64942
C    -0.06871  -0.78969   0.13317
C     0.11801  -0.95934   1.56591
N     0.17716  -1.21564   2.69622
H     2.94165   3.99054  -0.62999
H     2.00646   3.70529   0.86821
H     3.61182   2.95605   0.66642
H     1.69863   2.16255  -1.43916
H     2.46799  -2.18616   0.74429
H     3.60403  -2.63554  -0.58356
H     3.74228  -1.05856   0.27264
H     0.23458  -0.28446  -2.46982
H    -0.88769   2.56956   0.03390
H    -1.06489   3.61533   2.36156
H    -2.65633   2.80655   2.44802
H    -2.39063   4.13815   1.28416
H    -2.97755  -0.45132  -1.61330
H    -3.71884  -1.85075   0.59197
H    -1.60287  -3.46857   1.12663
H     0.22345  -2.87255  -0.77578
