18
Generated by autodE on: 2022-07-26. E = -530.736545 Ha
C     0.42797   2.90767   1.49047
N    -0.09597   1.87209   0.62468
C     0.43477   0.63730   0.62384
O     1.38910   0.31929   1.34590
C    -0.19399  -0.34892  -0.30633
N    -1.21149  -0.04907  -1.09488
O    -1.83208   1.02903  -1.23699
C     0.23085  -1.77807  -0.46774
C     1.36941  -2.32823   0.33000
O    -0.38400  -2.47384  -1.27140
H     1.49278   3.09983   1.28353
H    -0.13920   3.83070   1.32064
H     0.33912   2.62483   2.55178
H    -0.88410   2.04964   0.00095
H    -1.51215  -0.86597  -1.67081
H     1.16891  -2.21944   1.40577
H     1.50611  -3.38443   0.06517
H     2.28671  -1.75629   0.12686
