18
Generated by autodE on: 2022-05-31. E = -530.738614 Ha
C    -3.19817  -0.75380  -0.63801
N    -1.75384  -0.64769  -0.60175
C    -1.13526   0.17619   0.24647
O    -1.73270   0.90762   1.05522
C     0.36740   0.20668   0.20321
N     0.84797   1.06201   1.09411
O     2.01932   1.37495   1.36921
C     1.21991  -0.59606  -0.70018
C     2.71022  -0.44919  -0.63800
O     0.69644  -1.37731  -1.49598
H    -3.48033  -1.46613  -1.42229
H    -3.59714  -1.10885   0.32560
H    -3.66299   0.22029  -0.85738
H    -1.15704  -1.20292  -1.21714
H     0.06933   1.52013   1.62338
H     3.07785  -0.69014   0.37138
H     3.15986  -1.11901  -1.38211
H     3.00208   0.59467  -0.83105
