39
Generated by autodE on: 2022-05-31. E = -1138.652749 Ha. Imaginary frequency = -342.4 cm-1
C     2.16636   3.24642   0.63302
N     1.63843   2.19310  -0.21611
C     2.05738   0.91877  -0.08102
O     2.93974   0.59646   0.71675
C     1.42383  -0.10087  -0.99148
C     2.13151  -1.38495  -1.35613
C     3.12268  -1.99190  -0.41639
O     1.80833  -1.93068  -2.40181
N     0.49077   0.24379  -1.89335
O    -0.49465   1.00327  -1.53046
C    -1.32469   0.01723  -0.07288
C    -2.03988   1.12748   0.63302
O    -3.27423   1.09057   0.71235
N    -1.29411   2.09772   1.17847
C    -1.88436   3.20730   1.90206
C    -2.18338  -0.99905  -0.86269
C    -2.87673  -1.88458   0.17939
C    -1.90367  -2.64925   0.68912
C    -0.63011  -2.22212  -0.05041
O    -1.14873  -1.87545  -1.33770
C    -0.27977  -0.78574   0.47081
C     0.28982  -0.59269   1.75023
N     0.77620  -0.46758   2.80221
H     3.24088   3.40515   0.45185
H     1.62697   4.17551   0.41338
H     2.03316   2.99596   1.69734
H     0.85591   2.39022  -0.83466
H     2.71486  -2.03312   0.60385
H     3.37579  -2.99672  -0.77811
H     4.02568  -1.36567  -0.36753
H     0.28683  -0.47936  -2.59721
H    -0.29353   2.09723   1.00941
H    -1.07818   3.85914   2.25955
H    -2.46532   2.84934   2.76595
H    -2.55791   3.79303   1.25628
H    -2.78295  -0.58122  -1.67597
H    -3.92754  -1.81662   0.45428
H    -1.94074  -3.37812   1.49765
H     0.19621  -2.93630  -0.10768
