54
Generated by autodE on: 2022-06-05. E = -1468.477916 Ha
C    -3.34561   0.98174  -2.60258
N    -2.64239   0.73991  -1.35986
C    -1.32359   0.93595  -1.24245
O    -0.62580   1.42912  -2.13321
C    -0.73285   0.55686   0.14784
C    -0.76661   1.85261   0.95003
C    -1.71163   2.06838   1.96194
C    -1.74062   3.28069   2.65978
C    -0.83399   4.29593   2.34797
C     0.10449   4.09211   1.33032
C     0.13640   2.88242   0.63542
N    -1.53793  -0.50782   0.75695
C    -1.03303  -1.79315   0.23479
C    -1.33193  -2.91266   1.23513
C    -1.77427  -2.13356  -1.07894
O    -1.24619  -2.29494  -2.16003
O    -3.08698  -2.26057  -0.88712
C    -3.88428  -2.60133  -2.03165
C     0.47854  -1.58167  -0.08223
C     1.43683  -2.01685   1.06338
O     1.27460  -0.96002   2.00986
C     1.66437   0.10838   1.13838
C     2.99471  -0.39743   0.60732
C     4.02696   0.48787   0.04557
O     3.83613   1.67586  -0.14374
O     5.16049  -0.14858  -0.24055
C     6.21286   0.63167  -0.83038
C     2.85927  -1.74154   0.55324
C     3.72583  -2.71232  -0.00001
N     4.40365  -3.55123  -0.43839
C     0.68431  -0.03678  -0.06775
H    -4.39826   0.70128  -2.47779
H    -3.29209   2.04442  -2.88643
H    -2.91154   0.38908  -3.42408
H    -3.09030   0.23362  -0.59965
H    -2.43742   1.29336   2.20940
H    -2.48117   3.42885   3.44928
H    -0.85722   5.24204   2.89370
H     0.81926   4.87864   1.07731
H     0.87824   2.73426  -0.15070
H    -1.37807  -0.50091   1.76412
H    -0.85202  -2.69733   2.19988
H    -0.95984  -3.87752   0.86199
H    -2.41413  -2.99331   1.39811
H    -4.92373  -2.60209  -1.68467
H    -3.60639  -3.59764  -2.40464
H    -3.74940  -1.86088  -2.83115
H     0.75018  -2.05547  -1.02949
H     1.27222  -3.00131   1.50754
H     1.67877   1.06853   1.65787
H     7.04652  -0.06130  -0.98902
H     5.88017   1.05733  -1.78783
H     6.51226   1.44278  -0.15144
H     1.13233   0.36455  -0.98132
