34
Generated by autodE on: 2022-06-05. E = -840.609108 Ha
C    -2.53858   3.73346   0.75201
N    -2.13180   2.36054   0.53638
C    -0.83095   2.00981   0.47686
O     0.08260   2.85237   0.60406
C    -0.50788   0.58935   0.22721
N     0.80660   0.40280   0.08804
C     1.62598  -0.64985  -0.04113
C     1.17528  -2.06682   0.06006
C     3.01017  -0.25055  -0.21958
O     3.39765   0.91957  -0.25098
O     3.85565  -1.29238  -0.34760
C     5.23948  -0.97430  -0.51583
C    -1.52031  -0.45680  -0.00008
C    -2.50114  -0.74330   0.96951
C    -3.47866  -1.71020   0.72746
C    -3.49391  -2.40869  -0.48426
C    -2.52896  -2.12823  -1.45714
C    -1.55383  -1.15819  -1.22157
H    -2.27202   4.37825  -0.10227
H    -3.62655   3.76397   0.88820
H    -2.05710   4.15017   1.65002
H    -2.84180   1.65389   0.38043
H     1.31112   1.30684   0.13081
H     0.72536  -2.44393  -0.87492
H     0.41773  -2.18300   0.84948
H     2.03150  -2.70793   0.30194
H     5.62384  -0.42460   0.35643
H     5.76175  -1.93358  -0.61384
H     5.39457  -0.36759  -1.42049
H    -2.48280  -0.21604   1.92544
H    -4.22649  -1.92587   1.49412
H    -4.25727  -3.16753  -0.67080
H    -2.53972  -2.66344  -2.40953
H    -0.81571  -0.92865  -1.99231
