54
Generated by autodE on: 2022-06-05. E = -1468.381242 Ha. Imaginary frequency = -239.8 cm-1
C    -4.03767   1.47283  -2.50091
N    -3.30898   1.26051  -1.26547
C    -1.95943   1.24260  -1.25129
O    -1.28211   1.65376  -2.19847
C    -1.37432   0.87006   0.09508
C    -0.93494   2.00670   0.93112
C    -0.80347   1.91264   2.33454
C    -0.33698   2.98795   3.08947
C     0.02494   4.18901   2.47181
C    -0.09347   4.29798   1.08343
C    -0.56679   3.22837   0.32448
N    -1.78431  -0.25278   0.73732
C    -1.87863  -1.54839   0.34792
C    -2.02050  -2.56044   1.44646
C    -2.11586  -1.94455  -1.03267
O    -2.15956  -1.21944  -2.01913
O    -2.26156  -3.28658  -1.13442
C    -2.40744  -3.80863  -2.45733
C     0.51880  -1.49717  -0.47560
C     1.21209  -1.87442   0.84196
O     1.00441  -0.68807   1.61640
C     1.54868   0.22471   0.64565
C     2.93964  -0.40192   0.44728
C     4.13120   0.36690   0.06626
O     4.10171   1.56338  -0.16181
O     5.23306  -0.38254  -0.00367
C     6.44724   0.28318  -0.38118
C     2.74267  -1.73362   0.57657
C     3.64188  -2.80782   0.41353
N     4.34165  -3.73219   0.29641
C     0.71008  -0.14247  -0.59440
H    -5.10915   1.54707  -2.27695
H    -3.71103   2.40509  -2.98259
H    -3.87715   0.64392  -3.21088
H    -3.78982   0.78595  -0.50799
H    -1.05328   0.99815   2.87562
H    -0.25179   2.88021   4.17326
H     0.39635   5.02705   3.06554
H     0.18700   5.22622   0.57990
H    -0.63475   3.33179  -0.75717
H    -1.63667  -0.20154   1.74312
H    -1.65463  -2.15148   2.39971
H    -1.43785  -3.46223   1.21538
H    -3.06878  -2.87631   1.58548
H    -2.49876  -4.89570  -2.34518
H    -1.52798  -3.56620  -3.07248
H    -3.30821  -3.40348  -2.94181
H     0.32974  -2.21595  -1.26896
H     0.89646  -2.78269   1.36338
H     1.54128   1.26070   0.99167
H     7.22662  -0.48717  -0.37463
H     6.34824   0.71822  -1.38616
H     6.68834   1.07754   0.33978
H     0.67388   0.46131  -1.49733
