24
Generated by autodE on: 2022-06-24. E = -593.044484 Ha
C    -3.26592  -0.60944   1.74194
N    -1.91570  -0.74676   1.24593
O    -1.62902   0.33702   0.57193
C    -0.50821   0.57610  -0.07869
C    -0.54861   1.89604  -0.72175
C    -1.82270   2.70139  -0.60463
O     0.42839   2.33836  -1.32872
C     0.62564  -0.34426  -0.11804
C     0.95526  -1.17607   0.97533
C     2.07370  -2.00745   0.92211
C     2.87453  -2.04681  -0.22318
C     2.55190  -1.23789  -1.31836
C     1.44624  -0.39188  -1.26884
H    -3.87825  -1.45147   1.37262
H    -3.26481  -0.67863   2.84446
H    -3.73498   0.33848   1.43794
H    -2.05850   2.91286   0.44972
H    -2.67739   2.14923  -1.02444
H    -1.68738   3.64546  -1.14753
H     0.33580  -1.16367   1.86859
H     2.31727  -2.63485   1.78269
H     3.74253  -2.70892  -0.26505
H     3.16541  -1.26850  -2.22177
H     1.20557   0.23203  -2.12719
