50
Generated by autodE on: 2022-06-24. E = -1282.511873 Ha. Imaginary frequency = -233.7 cm-1
C    -0.37554  -2.65400   2.09877
O    -1.48329  -2.09854   1.37455
C    -1.38625  -0.98448   0.63066
C    -2.61277  -0.76283  -0.20700
O    -3.45006  -1.65099  -0.30303
C    -2.75506   0.53096  -0.91914
C    -3.82727   0.62922  -1.96099
C    -1.96977   1.58930  -0.59079
C    -2.12988   2.92136  -1.25337
C    -0.90805   1.46243   0.45347
O    -0.31994   2.45839   0.88820
C    -0.57144   0.13105   0.94911
O     0.30418   0.05036   1.99236
C    -0.18359   0.51207   3.25757
C     1.14345  -0.16349  -0.83778
C     0.67999   0.71476  -1.96022
C     0.17024   0.09337  -3.23841
O     0.80348   1.93225  -1.89077
C     2.32638   0.13023  -0.03363
C     2.81508   1.44562   0.12386
C     3.91132   1.69574   0.94887
C     4.54846   0.65094   1.62373
C     4.07303  -0.65766   1.47436
C     2.96997  -0.91652   0.66713
O     0.81744  -1.45636  -0.87447
N    -0.48459  -1.69596  -1.17435
C    -0.66743  -3.12333  -1.23727
H    -0.31205  -2.22258   3.10706
H     0.57233  -2.50308   1.57061
H    -0.58716  -3.72845   2.17881
H    -3.40428   0.97462  -2.91811
H    -4.31816  -0.33891  -2.11643
H    -4.59540   1.36573  -1.67119
H    -3.16883   3.27936  -1.17191
H    -1.90395   2.84266  -2.32966
H    -1.46045   3.66639  -0.80863
H    -0.36649   1.59622   3.23723
H    -1.11094  -0.01442   3.53620
H     0.60015   0.28623   3.99261
H     0.55930   0.70733  -4.06390
H    -0.92821   0.15134  -3.25743
H     0.46266  -0.95514  -3.36980
H     2.32534   2.26496  -0.39422
H     4.27052   2.72093   1.06378
H     5.40856   0.85365   2.26592
H     4.56088  -1.48168   1.99985
H     2.59854  -1.93619   0.57164
H    -1.72606  -3.32782  -1.02302
H    -0.02602  -3.67065  -0.52764
H    -0.45642  -3.48577  -2.26005
