45
Generated by autodE on: 2022-06-14. E = -1991.188255 Ha
C     1.59372   0.82094   4.64969
O     1.07664  -0.01561   3.60271
C     0.95670   0.53026   2.39533
O     1.25262   1.68805   2.17547
C     0.45819  -0.51165   1.38388
C    -0.83520  -1.09869   2.03209
C     1.70557  -1.49324   1.29413
C     2.07969  -2.11409  -0.05061
C     1.23672  -3.31138  -0.47541
C    -0.27415  -3.09547  -0.47247
C    -0.80601  -1.95873  -1.34482
Cl   -2.64593  -2.06703  -1.28520
Cl   -0.27915  -2.36181  -3.05493
C    -0.45800  -0.51114  -1.06702
C     0.09761   0.07735   0.03050
C     0.26771   1.55389  -0.34316
C     1.69408   1.88755  -0.45110
N     2.81925   2.10976  -0.62266
C    -0.52022   2.50456   0.57898
O    -1.53714   2.16894   1.14080
O    -0.01065   3.72392   0.57292
C    -0.68201   4.70956   1.37812
N    -0.33303   1.73509  -1.66828
C    -0.75921   0.58067  -2.05362
C    -1.48953   0.46019  -3.35220
H     1.61610   0.19483   5.54867
H     0.93715   1.68867   4.80452
H     2.60678   1.16510   4.39755
H    -1.39833  -0.28982   2.51819
H    -1.51541  -1.53790   1.29817
H    -0.58164  -1.85143   2.78930
H     1.56116  -2.27787   2.05193
H     2.58253  -0.91255   1.61553
H     3.12428  -2.45330   0.03545
H     2.08867  -1.34169  -0.83582
H     1.42731  -4.14643   0.21870
H     1.55987  -3.65141  -1.47053
H    -0.63150  -2.95035   0.55068
H    -0.76754  -4.00702  -0.83725
H    -1.72107   4.83300   1.04258
H    -0.66396   4.40279   2.43342
H    -0.12129   5.64051   1.24031
H    -1.88605   1.44674  -3.62598
H    -0.80565   0.12815  -4.14687
H    -2.30999  -0.26539  -3.29653
