16
Generated by autodE on: 2022-06-14. E = -492.366308 Ha
C    -3.34247   1.63564  -0.13019
C    -2.17671   0.79095  -0.08793
N    -1.24606   0.10109  -0.04973
C    -0.12198  -0.65638  -0.00443
C    -0.24190  -2.05852  -0.00688
N    -0.33253  -3.22451  -0.00865
C     1.17881  -0.02778   0.04604
O     2.23951  -0.64035   0.08941
O     1.10232   1.32001   0.04021
C     2.34421   2.02951   0.08659
H    -4.21412   1.03578   0.17853
H    -3.21782   2.46759   0.58100
H    -3.50619   2.02737  -1.14603
H     2.96765   1.78441  -0.78615
H     2.89880   1.78826   1.00566
H     2.08480   3.09493   0.07427
