29
Generated by autodE on: 2022-06-14. E = -1498.720402 Ha
C    -2.69720   3.33832   0.42562
O    -2.21985   2.02831   0.07799
C    -1.69801   1.87850  -1.13801
O    -1.60291   2.77750  -1.94579
C    -1.29803   0.42500  -1.42962
C    -2.51258  -0.24504  -2.10766
C    -0.86779  -0.25789  -0.21272
C    -0.14264  -0.76302   0.61727
C     1.14062  -1.14348   1.15792
Cl    1.43250  -2.92346   0.82729
Cl    1.21644  -0.90292   2.96438
C     2.23624  -0.30193   0.48168
C     2.17988  -0.24952  -1.05820
C     1.28930   0.82922  -1.73773
C    -0.05246   0.39377  -2.36336
H    -1.87751   4.06899   0.37497
H    -3.50485   3.64309  -0.25519
H    -3.07373   3.25875   1.45168
H    -2.74256   0.27350  -3.04960
H    -2.28066  -1.29689  -2.32717
H    -3.39567  -0.20417  -1.45389
H     3.20364  -0.70511   0.81592
H     2.14567   0.71573   0.89294
H     1.93198  -1.24954  -1.45054
H     3.21601  -0.05999  -1.37666
H     1.12391   1.67151  -1.04375
H     1.88278   1.24979  -2.56371
H     0.03632  -0.62977  -2.75930
H    -0.28921   1.04834  -3.21507
