50
Generated by autodE on: 2022-10-22. E = -4124.780817 Ha
C     3.11950   1.70552   4.25527
N     2.12053   1.05350   3.43219
C     2.05338   1.27032   2.11077
O     2.77227   2.06389   1.50888
N     1.11463   0.40697   1.46161
C     0.33485   0.70744   0.33994
C    -0.02851  -0.44340  -0.30187
C     0.45220  -1.58205   0.58812
C    -0.65717  -2.13374   1.51284
C    -0.43966  -3.52553   2.02691
O    -1.62148  -1.45847   1.82152
N     1.49666  -0.98614   1.43675
C     2.82487  -1.13481   0.82032
C    -0.77686  -0.68453  -1.58191
Cl   -2.56577  -0.25663  -1.50037
Br   -0.82490  -2.69169  -1.94577
C    -0.19218  -0.09620  -2.86935
C    -0.03118   1.42459  -2.96400
C     1.16301   2.00981  -2.18444
C     0.83114   2.84579  -0.94915
C    -0.05340   2.17752   0.11521
O    -1.38818   2.30771  -0.31743
C    -2.38488   2.02032   0.65774
O     0.07418   2.77492   1.39153
C     0.05062   4.19140   1.45206
H     4.12878   1.55062   3.84332
H     3.07918   1.28075   5.26548
H     2.94121   2.79101   4.32050
H     1.46735   0.40032   3.84999
H     0.89874  -2.42151   0.04748
H    -1.17092  -3.77255   2.80736
H    -0.54460  -4.23064   1.18470
H     0.58686  -3.63551   2.40850
H     3.03625  -2.20844   0.73016
H     3.59194  -0.69625   1.47214
H     2.88523  -0.66467  -0.17775
H     0.79383  -0.56730  -3.00917
H    -0.83270  -0.43978  -3.69367
H     0.11004   1.63289  -4.03560
H    -0.97041   1.91729  -2.67702
H     1.85155   1.19782  -1.89936
H     1.74254   2.66386  -2.85434
H     0.31468   3.76986  -1.24895
H     1.77084   3.12670  -0.45774
H    -3.34486   2.00530   0.12738
H    -2.22690   1.03939   1.13081
H    -2.41734   2.79663   1.43794
H    -0.12781   4.45488   2.50394
H    -0.76096   4.61323   0.83784
H     1.01134   4.63005   1.13641
