22
Generated by autodE on: 2022-10-26. E = -550.193872 Ha
C     0.28650   3.13536   1.49557
N     0.90051   1.85684   1.21439
C     0.51825   1.09596   0.16296
O    -0.41415   1.41482  -0.58752
N     1.37986   0.01836  -0.03804
N     0.95574  -0.98826  -0.75622
C     2.04270  -1.66295  -1.49518
C    -0.27639  -1.47307  -0.87828
C    -1.38302  -1.22830   0.04445
C    -2.70427  -1.81423  -0.37909
O    -1.25156  -0.63383   1.11422
H     0.54411   3.44266   2.51741
H     0.61957   3.92629   0.80005
H    -0.80728   3.05634   1.41693
H     1.74824   1.58913   1.70227
H     1.65775  -2.55251  -2.00362
H     2.81522  -1.94440  -0.76863
H     2.46519  -0.95009  -2.21490
H    -0.39967  -2.24258  -1.63807
H    -3.41965  -1.76549   0.45224
H    -3.09339  -1.22563  -1.22819
H    -2.59219  -2.85224  -0.72777
