22
Generated by autodE on: 2022-10-22. E = -550.193358 Ha
C    -4.16944  -0.01570   0.51498
N    -3.02636  -0.42081  -0.27053
C    -1.76193  -0.08157   0.08478
O    -1.53569   0.57238   1.11788
N    -0.85343  -0.56418  -0.85411
N     0.43905  -0.37468  -0.70510
C     1.20050  -0.95059  -1.83949
C     1.07971   0.23403   0.29137
C     2.52692   0.41099   0.39147
C     2.95710   1.13867   1.64318
O     3.35224   0.02312  -0.43714
H    -4.08945  -0.37364   1.55424
H    -4.27656   1.08194   0.54838
H    -5.07641  -0.44096   0.06786
H    -3.15794  -0.92745  -1.13835
H     0.46565  -1.39422  -2.51478
H     1.76825  -0.15721  -2.33712
H     1.90039  -1.70447  -1.46377
H     0.44636   0.62455   1.08050
H     2.62111   0.58835   2.53730
H     2.48708   2.13493   1.68424
H     4.04975   1.24168   1.65836
