28
Generated by autodE on: 2022-10-22. E = -3574.511383 Ha
C     0.72240  -3.56915  -1.99379
O    -0.28512  -2.61375  -2.30603
C    -0.94686  -2.04886  -1.20922
O    -1.66319  -3.08730  -0.57555
C    -2.05240  -2.87497   0.77182
C     0.00152  -1.33145  -0.31682
C     0.58971  -0.36089   0.11102
C     0.93072   1.02932   0.26295
Cl    2.71374   1.27611   0.48738
Br    0.00935   1.72104   1.90983
C     0.44329   1.80508  -0.97220
C    -1.00133   1.51160  -1.42053
C    -1.24628   0.29380  -2.35503
C    -1.90235  -0.96853  -1.76171
H     1.51717  -3.12051  -1.37217
H     1.15595  -3.89540  -2.94836
H     0.30368  -4.43972  -1.46578
H    -1.17660  -2.80413   1.44034
H    -2.66141  -1.96240   0.89136
H    -2.65645  -3.74389   1.06672
H     0.57364   2.87642  -0.76048
H     1.14066   1.54911  -1.78616
H    -1.66015   1.45446  -0.53819
H    -1.32199   2.41212  -1.96527
H    -1.91955   0.63780  -3.15441
H    -0.31003   0.01157  -2.86402
H    -2.59807  -0.69146  -0.95513
H    -2.48905  -1.48764  -2.53573
