50
Generated by autodE on: 2022-10-22. E = -4124.696723 Ha. Imaginary frequency = -188.6 cm-1
C     2.98319   2.76892   3.68845
N     2.20936   1.59005   3.35288
C     2.13898   1.13972   2.08917
O     2.83995   1.56248   1.16838
N     1.11720   0.15082   1.92713
C    -0.03775   0.73467   0.19033
C    -0.21416  -0.29510  -0.48993
C     0.54186  -1.90927   1.16793
C    -0.80855  -1.96923   1.76229
C    -1.68635  -3.08060   1.23889
O    -1.21667  -1.20135   2.62796
N     1.49574  -1.03108   1.50525
C     2.85753  -1.29623   0.99581
C    -0.71321  -0.79142  -1.75681
Cl   -2.55426  -0.76283  -1.69726
Br   -0.20440  -2.72308  -2.12442
C    -0.23366   0.00574  -2.97844
C    -0.34913   1.53182  -2.84494
C     0.82305   2.19783  -2.08243
C     0.48637   2.96905  -0.80143
C    -0.31888   2.20401   0.27121
O    -1.69053   2.41668  -0.03821
C    -2.62631   1.84228   0.86658
O    -0.05127   2.64552   1.58149
C    -0.16921   4.03964   1.81956
H     4.01190   2.67115   3.31412
H     3.01314   2.88011   4.77939
H     2.54282   3.68036   3.24909
H     1.48144   1.27897   3.98764
H     0.90014  -2.80371   0.66513
H    -2.48691  -3.27942   1.96401
H    -2.14753  -2.74928   0.29411
H    -1.12105  -3.99878   1.02657
H     2.97075  -2.37665   0.86540
H     3.59718  -0.93701   1.72003
H     2.99208  -0.77682   0.03838
H     0.81898  -0.26673  -3.14959
H    -0.80400  -0.35680  -3.84552
H    -0.38735   1.93282  -3.86898
H    -1.31398   1.78754  -2.38388
H     1.57996   1.43668  -1.83745
H     1.33058   2.90917  -2.75293
H    -0.08873   3.87752  -1.03669
H     1.43080   3.28307  -0.33547
H    -3.61491   1.93142   0.39628
H    -2.41552   0.77844   1.05442
H    -2.63459   2.37675   1.83049
H    -0.15842   4.17229   2.91011
H    -1.11476   4.44152   1.42121
H     0.67213   4.60495   1.38633
