18
Generated by autodE on: 2022-06-17. E = -235.968070 Ha
C    -1.42092  -1.18806   0.67497
C    -0.67387  -0.02923   0.05950
C    -1.61343   1.05604  -0.40838
C     0.67388   0.02918  -0.05953
C     1.42086   1.18802  -0.67505
C     1.61348  -1.05597   0.40847
H    -2.03433  -0.84037   1.52557
H    -2.13133  -1.61725  -0.05439
H    -0.77894  -2.00075   1.03536
H    -1.11492   1.92282  -0.85833
H    -2.22855   1.42029   0.43401
H    -2.32569   0.65327  -1.15089
H     2.13103   1.61754   0.05437
H     0.77880   2.00048  -1.03578
H     2.03454   0.84028  -1.52543
H     2.32596  -0.65292   1.15061
H     1.11504  -1.92253   0.85892
H     2.22836  -1.42058  -0.43394
