28
Generated by autodE on: 2022-06-23. E = -803.642147 Ha
O    -1.54921  -2.05951   1.80952
C    -0.89986  -1.28479   1.13143
O     0.59028  -1.32764   1.21516
C     1.06835  -0.42367   0.41580
C     2.46939  -0.16049   0.21626
C     3.42630  -0.90708   0.93352
C     4.78078  -0.65315   0.73865
C     5.18780   0.33655  -0.16423
C     4.23717   1.07837  -0.87714
C     2.87958   0.83669  -0.69275
O     0.12624   0.22945  -0.19957
C    -1.11585  -0.26426   0.20853
C    -2.32118   0.30618  -0.34004
C    -3.58356  -0.17554   0.07534
C    -4.75345   0.37032  -0.44982
C    -4.69873   1.40216  -1.39461
C    -3.45246   1.88359  -1.81035
C    -2.27374   1.34649  -1.29289
H     3.09899  -1.67644   1.63410
H     5.52486  -1.22893   1.29240
H     6.25205   0.53132  -0.31375
H     4.55921   1.84883  -1.58032
H     2.13360   1.41001  -1.24484
H    -3.63502  -0.97883   0.81141
H    -5.72019  -0.01473  -0.11619
H    -5.61870   1.82633  -1.80283
H    -3.39553   2.68837  -2.54747
H    -1.30838   1.73101  -1.62598
