48
Generated by autodE on: 2022-06-23. E = -1261.341915 Ha. Imaginary frequency = -507.8 cm-1
C     2.61092   2.50573  -0.83719
N     1.26303   1.96953  -0.79343
C     0.42871   2.07517  -1.89731
C    -0.91004   1.97654  -1.81323
C    -1.60896   1.87376  -0.48197
C    -0.66376   1.43256   0.61918
C    -1.13045   1.46413   2.02428
N    -2.47069   1.54589   2.20656
O    -0.34782   1.43564   2.98881
C     0.74353   1.46303   0.40460
C     1.18377  -0.52174   0.32612
C     2.57088  -0.66354  -0.11484
C     2.86465  -0.66139  -1.48805
C     4.19368  -0.68933  -1.91041
C     5.23085  -0.71668  -0.97205
C     4.93584  -0.72514   0.39637
C     3.61033  -0.69544   0.82865
O     0.84219  -0.96686   1.57623
C    -0.52968  -1.21952   1.57967
O    -1.12556  -1.51715   2.59494
C    -0.92955  -1.01240   0.20963
C    -2.20255  -1.23075  -0.42798
C    -3.36485  -1.41047   0.35352
C    -4.60533  -1.54806  -0.26583
C    -4.70909  -1.51199  -1.66155
C    -3.55974  -1.33567  -2.44031
C    -2.31315  -1.19252  -1.83397
O     0.20215  -0.91068  -0.53182
H     2.63267   3.58715  -0.60489
H     3.25254   1.98643  -0.11427
H     3.03962   2.35995  -1.83903
H     0.94408   2.22923  -2.84921
H    -1.51091   2.02330  -2.72267
H    -2.03992   2.85665  -0.19832
H    -2.48212   1.20362  -0.55727
H    -2.82328   1.46628   3.15493
H    -3.12142   1.38935   1.44539
H     1.36087   1.65159   1.28423
H     2.05420  -0.63201  -2.21732
H     4.42131  -0.68645  -2.97863
H     6.27047  -0.73388  -1.30679
H     5.74398  -0.75152   1.13064
H     3.37567  -0.68780   1.89420
H    -3.28301  -1.43281   1.43955
H    -5.50005  -1.68462   0.34568
H    -5.68429  -1.62129  -2.14125
H    -3.63614  -1.30598  -3.52954
H    -1.41962  -1.04403  -2.44080
