18
Generated by autodE on: 2022-07-27. E = -625.778982 Ha
C    -1.57980  -2.88262  -1.89289
N    -1.30178  -2.00905  -0.76755
C    -0.39593  -1.03158  -0.85846
O     0.27527  -0.76120  -1.85807
C    -0.18543  -0.18823   0.35819
O    -0.81487  -0.42180   1.42460
O    -0.58471   0.36350   2.50178
C     0.87169   0.89018   0.34219
O     2.01752   0.62975   0.61997
O     0.37857   2.05471  -0.01408
C     1.29985   3.16807  -0.05767
H    -2.39755  -3.55897  -1.62011
H    -1.87454  -2.29547  -2.77584
H    -0.69199  -3.47814  -2.15819
H    -1.78959  -2.15342   0.11267
H     2.10444   2.95819  -0.77542
H     1.72120   3.33972   0.94227
H     0.70694   4.02989  -0.38095
