36
Generated by autodE on: 2022-06-10. E = -1305.190016 Ha
C    -2.94274  -0.73046   3.57380
O    -1.86849  -0.38986   2.67992
C    -1.84293   0.85500   2.22105
O    -2.66591   1.70407   2.47923
C    -0.62376   1.10710   1.32935
Cl    0.67142   1.68505   2.54698
C    -0.10724  -0.04791   0.62665
C     0.39999  -0.65085  -0.29371
C     0.96507  -0.88655  -1.61567
C    -0.05987  -1.61376  -2.54877
C    -0.98076  -2.60294  -1.90392
O    -0.05567  -1.38454  -3.73999
C     2.19585  -1.83266  -1.54653
C     3.12307  -1.83966  -2.72386
O     2.36301  -2.53255  -0.56707
C     1.33572   0.51550  -2.18695
C     0.25639   1.60717  -2.02699
C     0.24654   2.45768  -0.72438
C    -0.88005   2.21988   0.29792
H    -3.91143  -0.58916   3.07421
H    -2.79504  -1.78491   3.83188
H    -2.89642  -0.10402   4.47602
H    -0.42951  -3.23319  -1.18918
H    -1.47188  -3.21601  -2.67023
H    -1.74340  -2.05585  -1.32591
H     2.56350  -1.86505  -3.66999
H     3.80480  -2.69663  -2.65188
H     3.71215  -0.90799  -2.72319
H     1.55178   0.37891  -3.25461
H     2.26841   0.84596  -1.70441
H    -0.74241   1.17325  -2.20191
H     0.41877   2.30561  -2.86194
H     0.15329   3.51146  -1.02657
H     1.22159   2.38511  -0.21492
H    -1.09103   3.14050   0.86007
H    -1.81120   1.94767  -0.22687
