30
Generated by autodE on: 2022-10-06. E = -1116.267940 Ha
C     4.15967  -1.08672   1.06097
N     2.79347  -0.62435   0.91398
C     2.09501  -0.92051  -0.18635
O     2.53302  -1.63217  -1.09884
C     0.70418  -0.29954  -0.29542
C     0.61321   0.76405  -1.40686
O     1.47145   1.44499  -1.90614
O    -0.69459   0.83563  -1.73714
C    -1.36807  -0.16292  -0.83531
C    -2.61711  -0.51186  -1.50992
N    -3.54301  -0.74755  -2.16588
C    -1.41579   0.49163   0.54942
C    -2.38604  -0.16859   1.55003
O    -2.13954   0.03109   2.76373
O    -3.35234  -0.81590   1.07359
C     0.06813   0.38140   0.96350
C     0.74017   1.71511   1.36430
O     0.28907   2.77456   0.87848
O     1.72935   1.61671   2.14839
N    -0.39832  -1.22365  -0.68721
C    -0.20877  -2.07023  -1.86925
H     4.20990  -2.18585   1.02965
H     4.80767  -0.69894   0.25726
H     4.54861  -0.74192   2.02706
H     2.44302   0.11580   1.54923
H    -1.69933   1.54653   0.43510
H     0.16941  -0.32246   1.79692
H     0.51362  -2.85808  -1.63942
H    -1.17095  -2.54418  -2.10688
H     0.14325  -1.52069  -2.75977
