20
Generated by autodE on: 2022-10-13. E = -661.180976 Ha
C     3.73297  -0.62934   1.60689
N     2.52666  -0.06744   1.03869
C     1.45193  -0.81273   0.69807
O     1.39044  -2.04366   0.83691
C     0.33732  -0.03312   0.14068
C     0.27568   1.37314  -0.06510
O     1.04258   2.29964   0.12871
O    -1.01112   1.60273  -0.61991
C    -1.63514   0.42471  -0.72368
C    -2.93951   0.32028  -1.24211
N    -4.01912   0.24579  -1.67293
N    -0.86236  -0.56150  -0.28147
C    -1.25822  -1.97166  -0.25993
H     4.59892  -0.46329   0.94590
H     3.95492  -0.17544   2.58564
H     3.59556  -1.70850   1.74132
H     2.47549   0.93773   0.88184
H    -0.55880  -2.54783  -0.87496
H    -1.22127  -2.33614   0.77198
H    -2.27532  -2.05280  -0.65888
