30
Generated by autodE on: 2022-10-06. E = -1116.221341 Ha. Imaginary frequency = -427.8 cm-1
C     4.18333  -1.12625   0.94400
N     2.94168  -0.50184   0.53492
C     2.14635  -1.09209  -0.36484
O     2.39554  -2.17506  -0.91460
C     0.90499  -0.33345  -0.69590
C     0.83684   1.05604  -1.10683
O     1.65517   1.94633  -1.17062
O    -0.48816   1.25015  -1.49970
C    -1.17518   0.09009  -1.17767
C    -2.42517  -0.08902  -1.85492
N    -3.45311  -0.22186  -2.37830
C    -1.48649   0.48369   0.79973
C    -2.49836  -0.59050   1.19892
O    -3.70506  -0.31552   0.96837
O    -2.06584  -1.65422   1.71730
C    -0.17172   0.46626   1.29218
C     0.60591   1.71786   1.61341
O     0.05444   2.83049   1.43809
O     1.79533   1.54922   2.03696
N    -0.24766  -0.93017  -1.12450
C    -0.59202  -2.33608  -0.94780
H     4.81931  -1.34559   0.07281
H     4.72079  -0.44097   1.61164
H     4.00865  -2.07529   1.47889
H     2.57061   0.30017   1.08624
H    -1.92535   1.47187   0.63640
H     0.18342  -0.45168   1.76484
H     0.06754  -2.94495  -1.57497
H    -0.48423  -2.62255   0.10483
H    -1.63461  -2.48135  -1.25312
