20
Generated by autodE on: 2022-06-19. E = -457.715317 Ha
C     3.13507   0.43206  -0.28656
N     1.81836  -0.16464  -0.13339
C     1.71035  -1.52265   0.19164
C     0.53043  -2.12197   0.41648
C    -0.79074  -1.39732   0.33881
C    -0.57233   0.07306   0.01970
C    -1.70225   1.01087  -0.08405
N    -2.93648   0.48317   0.11454
O    -1.56742   2.22574  -0.33675
C     0.67696   0.57742  -0.18759
H     3.02656   1.46708  -0.63409
H     3.72954  -0.12476  -1.02755
H     3.68873   0.43769   0.66755
H     2.65954  -2.05862   0.24772
H     0.52681  -3.18648   0.66169
H    -1.34613  -1.51730   1.29136
H    -1.44254  -1.87569  -0.42148
H    -3.08849  -0.49604   0.31964
H    -3.74174   1.09634   0.05208
H     0.80635   1.63634  -0.41642
