41
Generated by autodE on: 2022-06-19. E = -1085.798854 Ha. Imaginary frequency = -375.2 cm-1
C     3.64340  -2.21571   0.84881
O     2.77110  -1.27124   0.21100
C     2.18882  -0.36754   1.00422
O     2.38510  -0.30129   2.20528
C     1.25669   0.48154   0.25612
C     1.13428   0.56225  -1.19244
O     1.71207   0.01298  -2.10776
O     0.13759   1.48805  -1.41796
C    -0.47074   1.76999  -0.18391
C    -1.15818   3.09899  -0.14885
C    -1.67553   0.38913  -0.06868
N    -2.56829   0.62157  -1.16116
C    -3.86695   1.19742  -0.85572
C    -2.45457  -0.17158  -2.29454
C    -1.62063  -1.21881  -2.41125
C    -0.79786  -1.72789  -1.25958
C    -0.91163  -0.83647  -0.04470
C    -0.57615  -1.37752   1.28397
N     0.04144  -2.59218   1.31872
O    -0.86016  -0.78297   2.33918
N     0.50050   1.48720   0.77787
C     0.38676   1.96527   2.14876
H     3.09208  -2.79501   1.60301
H     4.00353  -2.87448   0.05068
H     4.48710  -1.69783   1.32669
H    -1.85013   3.17435  -0.99551
H    -1.72179   3.21768   0.78504
H    -0.41393   3.90593  -0.22705
H    -2.13545   0.62206   0.89652
H    -3.76349   2.02988  -0.14774
H    -4.56308   0.45662  -0.41574
H    -4.32202   1.58900  -1.77780
H    -3.10110   0.13552  -3.12208
H    -1.56922  -1.75314  -3.36186
H     0.25973  -1.85882  -1.55915
H    -1.13297  -2.74807  -0.98785
H     0.49626  -2.96708   0.49381
H     0.42073  -2.88199   2.21497
H     0.63634   3.03655   2.17802
H     1.07651   1.40519   2.78239
H    -0.63884   1.82564   2.51309
