28
Generated by autodE on: 2022-05-28. E = -803.193259 Ha
C     3.20617   0.10027   2.08024
N     2.02586  -0.46784   1.45612
C     1.46686   0.08703   0.37651
O     1.88603   1.12289  -0.14871
C     0.18669  -0.59300  -0.20757
C     0.27062  -2.13742  -0.22848
C    -0.20398  -2.85293  -1.45271
O     0.65871  -2.73662   0.76270
N    -0.10489  -0.03666  -1.53302
C    -1.19348   0.93994  -1.43939
C    -0.74861   2.34551  -1.53961
N    -0.39707   3.44642  -1.64237
C    -1.76000   0.64543  -0.07847
F    -2.88290   1.25167   0.30410
C    -1.02767  -0.20271   0.64395
C    -1.30054  -0.67816   2.02819
H     3.43529  -0.46953   2.98898
H     4.07810   0.06209   1.40684
H     3.03414   1.15237   2.35318
H     1.66827  -1.37585   1.74898
H    -1.22461  -2.52951  -1.70682
H     0.43127  -2.58723  -2.31139
H    -0.17450  -3.93591  -1.27710
H     0.73675   0.39100  -1.91456
H    -1.95228   0.79691  -2.23022
H    -0.47066  -0.42030   2.70418
H    -1.41893  -1.77224   2.06102
H    -2.21942  -0.21537   2.41392
