61
Generated by autodE on: 2022-07-01. E = -2611.347461 Ha
C    -1.51689  -7.54060 -16.11501
N    -0.82634  -6.81831 -15.06218
C    -1.48938  -6.11715 -14.14138
O    -2.69642  -5.88583 -14.17692
C    -0.66214  -5.50770 -12.94628
C     0.79125  -5.38463 -13.25461
N     1.88125  -5.08342 -13.51876
C    -0.91551  -6.24045 -11.60902
C    -1.35866  -5.35443 -10.68069
C    -1.46482  -3.94752 -11.30327
C    -0.31600  -3.02548 -10.77488
C    -0.45433  -1.53323 -10.80216
O     0.73211  -3.56009 -10.46016
C    -2.91372  -3.35166 -11.25402
O    -3.21509  -2.34620 -10.61323
N    -3.78409  -4.04641 -11.99959
C    -5.18016  -3.66914 -12.06848
N    -1.18289  -4.20128 -12.70143
C    -0.99666  -3.14204 -13.66651
C    -1.61151  -5.64640  -9.19229
C    -2.72073  -6.74951  -9.08874
O    -3.53880  -6.87899  -9.99601
N    -2.77926  -7.45880  -7.95292
C    -3.77319  -8.50301  -7.78050
C    -2.27200  -4.48368  -8.39176
F    -2.27539  -4.76899  -7.07741
F    -3.55233  -4.27894  -8.73302
F    -1.61851  -3.31697  -8.51608
C    -0.25030  -5.89118  -8.44039
C     0.87228  -6.65908  -9.12985
C     0.63428  -8.14486  -9.36448
C    -0.56547  -8.50303 -10.23985
C    -0.70393  -7.74970 -11.55806
Cl   -2.10991  -8.54417 -12.43838
Cl    0.80546  -8.18718 -12.51806
H    -0.79705  -7.80931 -16.89767
H    -2.30395  -6.90971 -16.54870
H    -1.98128  -8.46047 -15.72226
H     0.15292  -7.03251 -14.90103
H     0.54896  -1.08675 -10.82084
H    -1.05827  -1.18435 -11.64850
H    -0.97891  -1.21609  -9.88827
H    -3.41942  -4.76551 -12.63105
H    -5.72237  -4.42051 -12.65611
H    -5.31509  -2.68282 -12.54348
H    -5.61912  -3.62148 -11.05969
H    -1.76273  -2.36666 -13.52235
H     0.00089  -2.66690 -13.61483
H    -1.12768  -3.54758 -14.68053
H    -2.06237  -7.34657  -7.24586
H    -4.79153  -8.09128  -7.84850
H    -3.66523  -9.27907  -8.55566
H    -3.63637  -8.96068  -6.79355
H     0.14755  -4.89442  -8.21020
H    -0.46133  -6.35898  -7.46883
H     1.75194  -6.55756  -8.47455
H     1.15188  -6.15866 -10.06775
H     1.54274  -8.57788  -9.80941
H     0.48369  -8.65308  -8.39812
H    -0.50494  -9.56568 -10.51079
H    -1.50268  -8.40835  -9.68998
