31
Generated by autodE on: 2022-07-27. E = -834.550988 Ha
C     2.33635  -2.57154  -3.49918
N     1.96653  -2.08467  -2.18521
C     0.89343  -1.28638  -2.01115
O     0.15442  -0.96263  -2.95250
C     0.67921  -0.78694  -0.62832
C     1.74412  -0.80582   0.29432
N     2.65092  -0.87471   1.03044
N    -0.51825  -0.23276  -0.23731
C    -1.77800  -0.85434  -0.70490
C    -0.55173   0.77548   0.63378
C     0.54632   1.76057   0.77929
C     1.42780   2.10256  -0.39702
O     0.64181   2.37830   1.83574
C    -1.77988   1.04258   1.46340
O    -2.35486   2.13231   1.39757
N    -2.16767   0.04630   2.27512
C    -3.35550   0.16146   3.10108
H     3.29017  -3.10681  -3.42159
H     2.45146  -1.73833  -4.20954
H     1.57596  -3.25879  -3.90455
H     2.52728  -2.36068  -1.38580
H    -2.59105  -0.12501  -0.62868
H    -1.64133  -1.14071  -1.75065
H    -1.98628  -1.74346  -0.09613
H     2.46077   1.77816  -0.19573
H     1.09459   1.66409  -1.34648
H     1.43469   3.20044  -0.47435
H    -1.65323  -0.82956   2.26846
H    -4.26690   0.21509   2.48369
H    -3.30960   1.06899   3.72143
H    -3.41865  -0.71643   3.75480
