31
Generated by autodE on: 2022-07-01. E = -834.555029 Ha
C    -3.83058  -0.49040   1.25762
N    -2.79570  -0.95031   0.35133
C    -1.75640  -0.16450   0.02798
O    -1.62831   0.98934   0.44212
C    -0.78847  -0.75447  -0.96153
C    -1.25119  -1.76180  -1.84281
N    -1.67598  -2.59589  -2.53960
N     0.42207  -0.21844  -1.16614
C     1.10074  -0.52622  -2.44326
C     1.09144   0.46679  -0.18240
C     1.89241   1.63739  -0.51676
C     1.68341   2.35313  -1.83567
O     2.68815   2.14390   0.29382
C     0.96670  -0.07750   1.20447
O     0.28521  -1.08752   1.45610
N     1.68248   0.54745   2.15471
C     1.75396   0.02917   3.50313
H    -3.40915  -0.24556   2.24568
H    -4.57568  -1.28601   1.37413
H    -4.32706   0.41043   0.86572
H    -2.83272  -1.90579   0.01005
H     2.10738  -0.10490  -2.43158
H     0.51557  -0.13948  -3.28643
H     1.19287  -1.61837  -2.52595
H     0.73042   2.12376  -2.32682
H     2.50781   2.11547  -2.52651
H     1.73360   3.43158  -1.62854
H     2.31302   1.28517   1.83181
H     2.23297   0.77742   4.14719
H     2.33729  -0.90623   3.55862
H     0.74593  -0.18235   3.88977
