30
Generated by autodE on: 2022-07-01. E = -1776.715961 Ha
C     2.09884  -3.76304   0.74982
N     1.44096  -2.52853   0.36271
C     2.13429  -1.48944  -0.11625
O     3.35342  -1.49987  -0.28394
C     1.32155  -0.20272  -0.41366
C     1.63789   0.23782  -1.85945
F     1.45502  -0.78314  -2.71653
F     2.89553   0.66608  -2.00275
F     0.83270   1.23703  -2.26081
C    -0.11935  -0.34696  -0.25997
C    -1.25492  -0.12857   0.09805
C    -2.28714   0.58197   0.81906
Cl   -2.63785  -0.31921   2.37194
Cl   -3.83268   0.68212  -0.13209
C    -1.77512   1.99846   1.13567
C    -0.36030   2.07089   1.74441
C     0.85526   2.13414   0.77696
C     1.74860   0.88425   0.63659
H     1.34159  -4.46707   1.11415
H     2.83575  -3.58550   1.54866
H     2.62444  -4.21459  -0.10554
H     0.43704  -2.44092   0.48939
H    -2.51012   2.46011   1.81124
H    -1.80276   2.55872   0.18812
H    -0.34888   2.99635   2.33901
H    -0.22918   1.25408   2.47289
H     0.53116   2.48736  -0.21360
H     1.52546   2.91807   1.16070
H     2.77522   1.17971   0.37957
H     1.80158   0.36876   1.60744
