40
Generated by autodE on: 2022-06-17. E = -807.790705 Ha
C     5.95787  -0.72045   0.90564
C     4.83288  -0.04983   0.58469
C     4.77930   1.45513   0.58074
C     3.62040  -0.79601   0.23006
C     2.43852  -0.24776  -0.10466
C     1.21576  -1.05182  -0.45693
C     0.69749  -0.63978  -1.81074
N    -0.36062   0.07488  -1.84284
C    -0.81324   0.29529  -0.44229
C    -0.36174   1.65413  -0.08761
N     0.00484   2.72546   0.16690
C    -2.33196   0.24216  -0.31044
C    -2.96790   0.80962   0.80297
C    -4.35058   0.69234   0.96350
C    -5.11320   0.01153   0.00947
C    -4.48376  -0.54747  -1.10647
C    -3.10023  -0.43227  -1.26667
C    -0.05069  -0.80161   0.43136
C    -0.86795  -2.09845   0.46823
C     0.25748  -0.35759   1.85823
H     5.98429  -1.81446   0.90563
H     6.87815  -0.19502   1.17600
H     4.50862   1.83918  -0.41692
H     5.74730   1.88903   0.86828
H     4.01046   1.82640   1.27868
H     3.70631  -1.88884   0.25153
H     2.33122   0.84037  -0.13695
H     1.48670  -2.11857  -0.45228
H     1.22046  -0.90244  -2.73850
H    -2.38179   1.34791   1.55094
H    -4.83303   1.13870   1.83610
H    -6.19491  -0.07865   0.13332
H    -5.07182  -1.07666  -1.86006
H    -2.61199  -0.86850  -2.13805
H    -1.12663  -2.45161  -0.54085
H    -0.27012  -2.88094   0.95948
H    -1.79912  -1.97161   1.03768
H     0.84952   0.56667   1.89725
H    -0.67465  -0.19439   2.42047
H     0.82980  -1.14373   2.37363
