17
Generated by autodE on: 2022-06-17. E = -456.183611 Ha
C     2.55982  -1.86612   0.79359
N     1.94760  -0.97154   0.28528
C     1.20110   0.02916  -0.10527
C     1.86596   1.16968  -0.63251
N     2.39406   2.11367  -1.06902
C    -0.26588  -0.02475   0.00932
C    -1.05078   1.06543  -0.41199
C    -2.44018   1.02066  -0.29453
C    -3.07010  -0.10634   0.24370
C    -2.29462  -1.19278   0.66355
C    -0.90510  -1.15788   0.54734
H     2.94684  -2.80006   0.36472
H    -0.57037   1.95194  -0.83156
H    -3.03444   1.87536  -0.62609
H    -4.15807  -0.13879   0.33428
H    -2.77553  -2.07898   1.08430
H    -0.31334  -2.01483   0.87528
