23
Generated by autodE on: 2022-06-17. E = -351.519865 Ha
C     0.94122  -1.08459  -3.48868
C     1.10975  -0.78876  -2.18096
C     2.45869  -0.90632  -1.51867
C    -0.02934  -0.34449  -1.38067
C     0.00758  -0.01944  -0.06364
C    -1.14776   0.41846   0.69150
C    -1.14502   0.75186   2.00624
C    -2.39997   1.19719   2.69828
C     0.10457   0.69975   2.85419
H    -0.03946  -0.99765  -3.96659
H     1.77607  -1.41913  -4.11076
H     2.42697  -1.61597  -0.67524
H     2.78252   0.06205  -1.10219
H     3.22304  -1.24950  -2.23005
H    -0.98771  -0.27390  -1.90921
H     0.95903  -0.08731   0.47175
H    -2.09411   0.48146   0.14141
H    -2.27260   2.20829   3.12587
H    -2.63190   0.53484   3.55200
H    -3.26724   1.21118   2.02177
H     0.89114   1.36625   2.46286
H    -0.10488   1.00456   3.88973
H     0.53417  -0.31536   2.88569
