40
Generated by autodE on: 2022-06-17. E = -807.699952 Ha. Imaginary frequency = -372.0 cm-1
C     6.06233  -0.81627  -0.57137
C     4.97681  -0.29210   0.03768
C     5.06980   0.96419   0.86486
C     3.67576  -0.94670  -0.09788
C     2.52294  -0.52816   0.47553
C     1.23434  -1.19898   0.29944
C     0.78763  -0.25048  -1.59845
N    -0.12933   0.52058  -1.47067
C    -1.03881   0.96145  -0.57209
C    -0.65767   2.07557   0.20570
N    -0.34313   2.97879   0.87960
C    -2.41482   0.48004  -0.60370
C    -3.36257   0.96221   0.32400
C    -4.65584   0.44114   0.35123
C    -5.03804  -0.56220  -0.54687
C    -4.10577  -1.04036  -1.47488
C    -2.80846  -0.52982  -1.50622
C     0.12779  -0.98869   1.12108
C    -1.02610  -1.94279   1.04294
C     0.13826  -0.06718   2.30609
H     5.98972  -1.72932  -1.17032
H     7.04655  -0.34716  -0.48704
H     4.40524   1.75013   0.46898
H     6.09682   1.35528   0.88147
H     4.75264   0.77936   1.90470
H     3.65511  -1.85148  -0.71739
H     2.52834   0.37809   1.08625
H     1.26172  -2.14648  -0.25074
H     1.50597  -0.48215  -2.39141
H    -3.07710   1.74394   1.03130
H    -5.37311   0.82520   1.08075
H    -6.05275  -0.96560  -0.52503
H    -4.39136  -1.82183  -2.18337
H    -2.09086  -0.91561  -2.23275
H    -1.07133  -2.45835   0.07231
H    -0.92989  -2.71439   1.83116
H    -1.98848  -1.43761   1.21697
H     0.80842   0.79420   2.19044
H    -0.87174   0.31364   2.52224
H     0.46740  -0.62387   3.20464
