43
Generated by autodE on: 2022-10-21. E = -979.383761 Ha
C    -0.89638  -0.69704   2.95358
O     0.06566  -0.88755   1.93411
C    -0.27484  -0.61940   0.58440
C     0.06588  -1.90755  -0.25821
C    -0.62550  -3.06050   0.45657
C    -1.92607  -2.91846   0.17083
C    -2.01144  -1.68153  -0.70763
O    -0.75652  -1.73269  -1.41912
C    -1.78358  -0.43776   0.20009
C    -1.83050   0.87429  -0.59829
C    -2.53336   2.01886   0.13411
C    -2.30737   3.40831  -0.39257
O    -3.29500   1.80023   1.06357
N    -0.46081   1.19320  -1.01591
C     0.42103   0.70320   0.06290
C     0.47239   1.74885   1.19169
C     1.84334   0.48219  -0.43647
C     2.77291  -0.17231   0.39171
C     4.08997  -0.37049  -0.02373
C     4.51098   0.09007  -1.27688
C     3.59981   0.74896  -2.10386
C     2.27779   0.94525  -1.68600
H    -0.36954  -0.83126   3.90961
H    -1.70879  -1.44232   2.89442
H    -1.33927   0.31189   2.93618
H     1.11760  -2.03357  -0.52854
H    -0.14412  -3.77120   1.12733
H    -2.77894  -3.48185   0.55017
H    -2.85662  -1.60131  -1.40108
H    -2.47371  -0.42017   1.04668
H    -2.44585   0.75472  -1.50749
H    -1.28188   3.72842  -0.15379
H    -3.02533   4.10267   0.06340
H    -2.39628   3.42574  -1.48955
H    -0.27475   0.61703  -1.83556
H     0.87459   2.69016   0.79103
H    -0.52008   1.95001   1.61801
H     1.12032   1.41220   2.01019
H     2.45122  -0.54437   1.36576
H     4.79217  -0.88858   0.63415
H     5.54232  -0.06385  -1.60314
H     3.91482   1.11807  -3.08308
H     1.58611   1.47234  -2.34339
