26
Generated by autodE on: 2022-10-21. E = -557.232126 Ha
C    -4.71563   0.22960   0.51750
C    -3.25141   0.52265   0.28553
O    -2.88581   1.69689  -0.00057
C    -2.33165  -0.54404   0.39733
N    -1.02022  -0.22350   0.16792
C     0.07199  -0.95884   0.20737
C    -0.08042  -2.39607   0.57422
C     1.35921  -0.33399  -0.10763
C     2.56751  -0.92194   0.32466
C     3.79527  -0.31781   0.05288
C     3.85211   0.88298  -0.66064
C     2.66326   1.47450  -1.10418
C     1.43454   0.87597  -0.83621
H    -5.08933   0.86204   1.33999
H    -5.29090   0.50376  -0.38251
H    -4.90765  -0.82530   0.75931
H    -2.60073  -1.56675   0.64321
H    -0.93044   0.77654  -0.05524
H     0.86289  -2.94648   0.50301
H    -0.47635  -2.49913   1.60012
H    -0.81177  -2.87953  -0.09668
H     2.54880  -1.84892   0.89879
H     4.71514  -0.78929   0.40647
H     4.81455   1.35248  -0.87585
H     2.69382   2.40476  -1.67608
H     0.52953   1.34558  -1.22828
