26
Generated by autodE on: 2022-10-26. E = -557.216710 Ha
C    -2.56741   1.90250   0.28089
C    -3.21206   0.53220   0.17320
O    -4.46469   0.45313   0.27935
C    -2.43929  -0.60913  -0.15080
N    -1.06566  -0.69285  -0.25040
C    -0.09728  -0.17796   0.49774
C    -0.40413   0.38069   1.84386
C     1.27641  -0.25781  -0.00670
C     2.37953  -0.13477   0.86747
C     3.68453  -0.24762   0.39149
C     3.92791  -0.47285  -0.96765
C     2.84848  -0.56984  -1.85158
C     1.54127  -0.45148  -1.38263
H    -1.56343   1.95912  -0.16211
H    -2.49662   2.21898   1.33416
H    -3.22983   2.61759  -0.23016
H    -2.96741  -1.49018  -0.52036
H    -0.74240  -1.29297  -1.01399
H    -0.33302   1.47898   1.87692
H    -1.41835   0.09482   2.15364
H     0.31529  -0.00987   2.57849
H     2.22070   0.03547   1.93195
H     4.51972  -0.15973   1.09009
H     4.95216  -0.55762  -1.33746
H     3.02491  -0.71925  -2.91920
H     0.72332  -0.47601  -2.10572
