17
Generated by autodE on: 2022-10-21. E = -422.087858 Ha
C    -2.77231  -0.51668  -0.38129
O    -1.79604   0.36340  -0.93907
C    -0.59732   0.43945  -0.33244
C     0.40952   1.29313  -0.58044
C     1.56040   0.76238   0.29567
C     2.01484  -0.60630  -0.27448
C     1.00336  -1.44145  -0.02151
C    -0.04395  -0.57050   0.71441
O     0.81868   0.30624   1.45407
H    -3.66825  -0.42116  -1.00790
H    -2.42751  -1.56260  -0.40375
H    -3.02163  -0.23187   0.65355
H     0.47506   2.09122  -1.31679
H     2.34839   1.47290   0.56976
H     2.94322  -0.78299  -0.81738
H     0.86809  -2.48640  -0.29808
H    -0.76571  -1.08282   1.35801
