43
Generated by autodE on: 2022-10-21. E = -979.294295 Ha. Imaginary frequency = -362.5 cm-1
C    -0.87259  -0.63411   3.20376
O     0.05545  -0.86933   2.15317
C    -0.44858  -0.92228   0.88582
C     0.17118  -1.96467  -0.06347
C    -0.49947  -3.31057   0.28736
C    -1.76551  -3.17532  -0.12722
C    -1.84845  -1.75464  -0.72174
O    -0.51773  -1.63142  -1.27960
C    -1.75452  -0.74735   0.44731
C    -1.80567   1.17853  -0.82070
C    -2.60834   2.15710  -0.11258
C    -2.07101   3.54404   0.18413
O    -3.79398   1.89753   0.15872
N    -0.44899   1.21724  -1.03328
C     0.50624   1.15433  -0.06899
C     0.30198   1.86326   1.22884
C     1.85425   0.74364  -0.48486
C     2.84245   0.46183   0.48597
C     4.09453  -0.03116   0.12145
C     4.41117  -0.24705  -1.22386
C     3.45365   0.04382  -2.20059
C     2.19903   0.53505  -1.84063
H    -0.29909  -0.63213   4.14050
H    -1.63241  -1.43385   3.23644
H    -1.38267   0.33587   3.09274
H     1.25995  -1.94944  -0.18348
H    -0.02450  -4.13776   0.81445
H    -2.60517  -3.86308  -0.02572
H    -2.61902  -1.57780  -1.48000
H    -2.61552  -0.50737   1.06852
H    -2.35111   0.67292  -1.61797
H    -1.07463   3.72817  -0.23255
H    -2.05325   3.72844   1.26972
H    -2.78083   4.26390  -0.25373
H    -0.20378   0.65159  -1.84222
H     0.59066   2.92554   1.15511
H    -0.74687   1.82182   1.54218
H     0.90060   1.40815   2.02415
H     2.62206   0.60091   1.54353
H     4.83060  -0.24902   0.89915
H     5.39401  -0.62952  -1.50807
H     3.68731  -0.10203  -3.25801
H     1.49716   0.77870  -2.64065
