55
Generated by autodE on: 2022-06-04. E = -1365.268249 Ha
C     2.52834   3.40630  -0.44504
O     1.94143   2.15268  -0.07328
C     2.56083   1.04611  -0.46032
O     3.58406   1.03517  -1.11098
C     1.79699  -0.21560  -0.04611
C     2.64801  -1.49961  -0.27160
C     1.98721  -2.68273   0.45941
C     0.70772  -2.95141  -0.38885
C     0.78361  -1.88382  -1.49930
C     2.30662  -1.81785  -1.74008
C     0.53720  -0.45811  -0.96322
F     0.57939   0.39215  -2.06888
C    -0.69459  -0.12526  -0.03329
C    -1.09161   1.36490  -0.12036
C    -1.03588   2.18399   1.01365
C    -1.41009   3.52946   0.94816
C    -1.85793   4.07880  -0.25505
C    -1.93873   3.26339  -1.38829
C    -1.56465   1.92004  -1.32018
C    -1.93997  -0.96476  -0.30041
C    -2.75076  -1.37988   0.76697
C    -3.91778  -2.11186   0.53147
C    -4.29935  -2.42854  -0.77485
C    -3.50679  -2.00151  -1.84428
C    -2.33838  -1.27315  -1.60969
N    -0.16331  -0.42045   1.31073
N     1.19823  -0.06890   1.26942
C     1.92041   0.28256   2.36171
C     1.20512   0.30057   3.68410
O     3.12359   0.53925   2.23605
H     3.52011   3.51403   0.01719
H     1.84560   4.17712  -0.06948
H     2.62039   3.47664  -1.53818
H     3.70415  -1.34433  -0.02799
H     1.77663  -2.46735   1.51630
H     2.66509  -3.54718   0.43710
H    -0.22621  -2.92747   0.18661
H     0.75287  -3.94178  -0.86345
H     0.16179  -2.10062  -2.37381
H     2.60668  -1.03343  -2.44583
H     2.72099  -2.78065  -2.07263
H    -0.69252   1.76872   1.95790
H    -1.35084   4.14797   1.84702
H    -2.14899   5.13050  -0.30935
H    -2.29828   3.67331  -2.33518
H    -1.64288   1.30785  -2.21674
H    -2.47642  -1.12427   1.79118
H    -4.53291  -2.43073   1.37620
H    -5.21146  -3.00064  -0.95964
H    -3.79664  -2.23626  -2.87108
H    -1.73946  -0.94540  -2.45899
H    -0.23665  -1.42189   1.49811
H     1.89505   0.67498   4.45008
H     0.87694  -0.71581   3.95197
H     0.30822   0.93456   3.64477
