32
Generated by autodE on: 2022-07-27. E = -765.100962 Ha
C     2.17170   0.25212   4.22739
C     1.49928  -0.48900   3.10331
O     1.33769  -1.72972   3.15852
N     1.09797   0.28724   2.06438
N     0.49384  -0.48008   1.13788
C    -0.02438  -0.11003  -0.00685
C     0.09079   1.27144  -0.50486
C     1.27664   2.01558  -0.35204
C     1.36551   3.30812  -0.86664
C     0.27104   3.88508  -1.52038
C    -0.91317   3.15677  -1.67000
C    -1.00123   1.85532  -1.17609
C    -0.74202  -1.14055  -0.78131
C    -1.46645  -2.16097  -0.13309
C    -2.11315  -3.14830  -0.87568
C    -2.05103  -3.13211  -2.27298
C    -1.33908  -2.12030  -2.92556
C    -0.69170  -1.12902  -2.18874
H     2.21243   1.33287   4.04112
H     1.63001   0.05860   5.16715
H     3.19452  -0.13696   4.35856
H     0.44287  -1.47822   1.41094
H     2.12801   1.57319   0.16225
H     2.29524   3.87045  -0.75495
H     0.34224   4.90175  -1.91381
H    -1.77219   3.60268  -2.17600
H    -1.92651   1.29035  -1.29817
H    -1.54789  -2.16792   0.95603
H    -2.67930  -3.92719  -0.36031
H    -2.56201  -3.90408  -2.85276
H    -1.28399  -2.10457  -4.01626
H    -0.12809  -0.35040  -2.70436
