32
Generated by autodE on: 2022-06-04. E = -765.100970 Ha
C     4.44841  -1.48525   0.81753
C     3.40328  -0.42207   0.61155
O     3.70900   0.79210   0.63600
N     2.14530  -0.88828   0.40404
N     1.30763   0.14789   0.21238
C     0.01668   0.11322  -0.00779
C    -0.74793  -1.14537   0.03204
C    -0.49178  -2.13674   0.99885
C    -1.25993  -3.29972   1.03197
C    -2.27712  -3.50188   0.09250
C    -2.53309  -2.52691  -0.87652
C    -1.78230  -1.35177  -0.90148
C    -0.64899   1.39557  -0.30644
C    -1.96445   1.62846   0.13969
C    -2.58688   2.85152  -0.10788
C    -1.91209   3.85696  -0.80809
C    -0.60791   3.63302  -1.26144
C     0.02029   2.41259  -1.01582
H     4.91127  -1.35239   1.80894
H     5.24766  -1.36125   0.06928
H     4.02754  -2.49605   0.74282
H     1.78741   1.06605   0.23469
H     0.30341  -1.98704   1.72713
H    -1.06250  -4.05518   1.79576
H    -2.87064  -4.41873   0.11690
H    -3.32309  -2.67982  -1.61500
H    -1.98793  -0.59262  -1.65752
H    -2.49197   0.85358   0.69737
H    -3.60407   3.02178   0.25163
H    -2.40415   4.81202  -1.00558
H    -0.08049   4.40841  -1.82128
H     1.02702   2.23873  -1.40178
