23
Generated by autodE on: 2022-06-04. E = -600.129005 Ha
C     3.49513   0.76702  -0.88233
O     2.09274   0.88132  -0.61705
C     1.52881  -0.11632   0.09203
O     2.16521  -1.07637   0.49919
C     0.10141   0.10584   0.29448
C    -0.80269  -0.80171   0.72611
F    -0.57404  -2.05560   1.09082
C    -2.19391  -0.26208   0.55915
C    -2.43848  -0.23605  -0.99073
C    -1.44147   0.85029  -1.48851
C    -0.73303   1.29764  -0.17223
C    -1.90969   1.23224   0.82627
H     3.76782   1.65654  -1.46245
H     3.70842  -0.14271  -1.46288
H     4.06701   0.73812   0.05695
H    -2.96870  -0.76879   1.14639
H    -2.26855  -1.22285  -1.44360
H    -3.48177   0.05127  -1.18512
H    -1.97120   1.69971  -1.94438
H    -0.71855   0.46715  -2.22227
H    -0.18465   2.24367  -0.24107
H    -1.60694   1.43363   1.86393
H    -2.75277   1.88137   0.54705
