55
Generated by autodE on: 2022-06-04. E = -1365.179176 Ha. Imaginary frequency = -353.3 cm-1
C     2.56448   3.52325  -0.69459
O     1.91276   2.25050  -0.71532
C     2.66173   1.17385  -0.46127
O     3.86800   1.23678  -0.28448
C     1.88705  -0.08197  -0.44137
C     2.65396  -1.41573  -0.35681
C     1.86620  -2.51461   0.39259
C     0.65355  -2.78156  -0.54388
C     0.90194  -1.80765  -1.72195
C     2.45404  -1.89173  -1.82314
C     0.77985  -0.35153  -1.26898
F     0.35625   0.52371  -2.22019
C    -0.97932   0.09016   0.26828
C    -1.17833   1.52991  -0.04484
C    -0.76652   2.53148   0.85827
C    -0.99402   3.87952   0.58703
C    -1.63276   4.26635  -0.59538
C    -2.06795   3.28365  -1.48854
C    -1.85437   1.93293  -1.21257
C    -2.08480  -0.86611  -0.04143
C    -2.83881  -1.41492   1.01113
C    -3.86433  -2.32721   0.75092
C    -4.15829  -2.69815  -0.56356
C    -3.41848  -2.15078  -1.61670
C    -2.39011  -1.24327  -1.36068
N    -0.21669  -0.25661   1.33559
N     0.98294   0.29971   1.48786
C     1.70690   0.03796   2.61993
C     0.96963  -0.46191   3.84183
O     2.92234   0.25190   2.63229
H     3.00035   3.71635   0.29684
H     1.78585   4.26307  -0.91404
H     3.35738   3.56869  -1.45545
H     3.68167  -1.27815  -0.00485
H     1.58406  -2.23796   1.41553
H     2.50367  -3.40630   0.47665
H    -0.31754  -2.63154  -0.06035
H     0.66527  -3.81227  -0.92614
H     0.32107  -2.02412  -2.62613
H     2.86980  -1.19213  -2.56317
H     2.83358  -2.90881  -2.01641
H    -0.26224   2.25608   1.78140
H    -0.66638   4.63347   1.30650
H    -1.80074   5.32376  -0.81247
H    -2.58498   3.56716  -2.40816
H    -2.22110   1.19199  -1.91896
H    -2.62966  -1.11820   2.04126
H    -4.43961  -2.74252   1.58153
H    -4.96074  -3.41059  -0.76768
H    -3.63497  -2.43947  -2.64771
H    -1.80404  -0.84972  -2.18994
H    -0.33160  -1.22489   1.65099
H     1.65501  -0.46838   4.69839
H     0.60605  -1.48947   3.67125
H     0.09319   0.16583   4.06079
