37
Generated by autodE on: 2022-10-07. E = -938.262083 Ha
C    -0.53182   1.51561   2.48716
N    -0.60606   1.05910   1.11769
C     0.28596  -0.04368   0.79318
C     1.75951   0.29702   0.81039
C     2.69544  -0.72204   1.04549
C     4.06740  -0.46236   0.99149
C     4.52622   0.82796   0.70597
C     3.60126   1.85097   0.47171
C     2.22946   1.58569   0.52005
C    -0.20700  -0.48016  -0.59814
C     0.35297  -1.85029  -1.01240
O     1.21978  -1.86659  -1.92604
O    -0.06111  -2.86022  -0.37578
C    -1.71610  -0.42270  -0.40792
C    -2.56239  -0.39740  -1.69162
O    -1.97429  -0.23102  -2.79273
O    -3.80948  -0.54757  -1.54597
C    -1.96493   0.78596   0.55582
C    -2.44808   2.04392  -0.17675
C    -3.00171   0.38064   1.61274
H    -1.20901   2.36796   2.64856
H    -0.78166   0.73463   3.23687
H     0.48872   1.86481   2.71040
H     0.13715  -0.90478   1.48179
H     2.33751  -1.73039   1.27054
H     4.78111  -1.26935   1.17596
H     5.59850   1.03548   0.66918
H     3.95031   2.86289   0.24993
H     1.50794   2.38300   0.33533
H     0.11726   0.26352  -1.33916
H    -2.00351  -1.33645   0.13462
H    -1.80045   2.26739  -1.03807
H    -2.42771   2.90997   0.50413
H    -3.47758   1.92056  -0.54380
H    -3.27351   1.21654   2.27570
H    -2.63493  -0.45205   2.23242
H    -3.91200   0.04010   1.09787
