45
Generated by autodE on: 2022-12-30. E = -1051.080609 Ha
C     1.00286  -4.89470  -1.04575
N     0.63207  -4.01165   0.04344
C     0.25908  -2.74839  -0.16396
O     0.19031  -2.23598  -1.28994
C    -0.15014  -1.95960   1.10748
O     0.36425  -2.66478   2.22364
C     0.44961  -1.93905   3.43844
C     0.32561  -0.57924   0.94342
C     0.23071   0.52559   0.45357
C    -0.27788   1.69655  -0.24476
C     0.19495   1.72694  -1.72279
O     0.24652   2.80027  -2.33127
N     0.47412   0.54197  -2.27895
C     0.80963   0.42778  -3.68521
C     0.21601   3.01740   0.40639
O    -0.52197   3.98676   0.57448
N     1.51312   3.01993   0.75268
C     2.15640   4.19537   1.30792
C    -1.85459   1.60892  -0.26316
C    -2.50265   0.56728   0.66130
C    -2.41091  -0.91896   0.21094
C    -1.71426  -1.89651   1.17369
H     1.89767  -4.52604  -1.57229
H     1.21606  -5.89000  -0.63819
H     0.18641  -4.97640  -1.77928
H     0.70668  -4.32034   1.00797
H    -0.52985  -1.54498   3.75894
H     0.81639  -2.63954   4.20088
H     1.15801  -1.09647   3.35161
H     0.35682  -0.32298  -1.74063
H     1.69023   1.03984  -3.93426
H     1.03465  -0.62330  -3.90485
H    -0.02315   0.75468  -4.32938
H     2.07302   2.19494   0.56078
H     2.20096   5.01564   0.57289
H     1.60919   4.55872   2.19080
H     3.17841   3.93301   1.60694
H    -2.21863   2.61243  -0.00695
H    -2.17473   1.40961  -1.29687
H    -2.10948   0.68415   1.68344
H    -3.56737   0.84341   0.72319
H    -1.93437  -0.98752  -0.77834
H    -3.43490  -1.29799   0.06976
H    -2.07251  -2.92303   0.99909
H    -1.97602  -1.64013   2.21172
