18
Generated by autodE on: 2023-01-01. E = -605.732234 Ha
C    -0.35557   4.00617   0.09542
O     0.22365   2.78570   0.58030
C    -0.21007   1.65261   0.01905
O    -1.04752   1.59036  -0.86213
C     0.45440   0.47892   0.60055
C     1.41736   0.56267   1.63143
N     2.19907   0.64059   2.47107
N     0.11272  -0.70385   0.11536
C    -0.26141  -1.69836  -0.36538
C    -0.54883  -2.95960  -1.02993
C    -1.55836  -2.88971  -2.13008
O     0.03385  -3.95839  -0.64251
H     0.10051   4.80944   0.68513
H    -0.12758   4.14156  -0.97179
H    -1.44537   3.99892   0.24055
H    -2.55847  -2.74157  -1.68815
H    -1.53826  -3.83031  -2.69644
H    -1.35539  -2.03226  -2.79055
