18
Generated by autodE on: 2022-12-31. E = -605.732139 Ha
C     3.75113   1.46788  -0.16986
O     2.83624   0.36493  -0.08935
C     1.53380   0.66730  -0.07254
O     1.08288   1.79747  -0.11915
C     0.70500  -0.54158   0.01041
C     1.23911  -1.84959   0.06391
N     1.68863  -2.92506   0.10733
N    -0.60745  -0.36811   0.03634
C    -1.75042  -0.12161   0.05538
C    -3.18858   0.09311   0.07330
C    -3.62867   1.51957   0.01692
O    -3.91032  -0.88825   0.13452
H     3.58265   2.04000  -1.09363
H     3.63212   2.13031   0.69963
H     4.75392   1.02581  -0.17524
H    -4.72597   1.55695   0.00879
H    -3.23473   2.06355   0.89125
H    -3.22080   2.00408  -0.88505
