36
Generated by autodE on: 2022-05-28. E = -750.445514 Ha
C    -4.19093   0.85318   0.56439
C    -3.24180  -0.23139   0.15384
O    -3.45702  -1.41070   0.39094
C    -2.00752   0.19793  -0.62512
N    -1.55346  -0.88433  -1.50213
O    -0.13054  -0.89059  -1.41495
C     0.22762  -0.57067  -0.05373
C     0.03323  -1.82169   0.81110
C     1.68501  -0.13550  -0.05657
C     2.35939   0.13902  -1.25581
C     3.69176   0.56245  -1.24598
C     4.37260   0.72613  -0.03681
C     3.70961   0.45509   1.16388
C     2.38108   0.02287   1.15307
C    -0.77642   0.59984   0.28940
C    -1.08472   0.70430   1.78549
C    -0.25092   1.95343  -0.20460
H    -3.66473   1.78133   0.82816
H    -4.83412   0.51474   1.38725
H    -4.82299   1.08143  -0.31253
H    -2.28767   1.07705  -1.22270
H    -1.86181  -1.75820  -1.06212
H    -1.01663  -2.14471   0.81912
H     0.64968  -2.63427   0.39885
H     0.33514  -1.65321   1.85198
H     1.83566   0.02118  -2.20366
H     4.19893   0.76709  -2.19220
H     5.41292   1.05996  -0.02934
H     4.22908   0.57693   2.11749
H     1.88446  -0.18629   2.10155
H    -1.57725  -0.19038   2.18892
H    -1.73233   1.56977   1.98619
H    -0.15197   0.86063   2.34753
H     0.04958   1.90672  -1.26138
H     0.61425   2.28590   0.38664
H    -1.04240   2.71254  -0.10700
