36
Generated by autodE on: 2022-05-28. E = -750.390129 Ha. Imaginary frequency = -409.1 cm-1
C    -3.90704   1.35159  -0.70499
C    -3.27760   0.00112  -0.54028
O    -3.90070  -0.97240  -0.12185
C    -1.84477  -0.12280  -0.88483
N    -1.37676  -1.37519  -1.04639
O    -0.09523  -1.52442  -1.06539
C     0.44744  -0.50576   0.68918
C     0.50895  -1.76449   1.52100
C     1.75266   0.01449   0.18934
C     1.89021   0.63073  -1.06963
C     3.12445   1.11909  -1.50043
C     4.25565   1.00673  -0.68403
C     4.13762   0.39258   0.56528
C     2.90219  -0.10259   0.99344
C    -0.65655   0.38169   0.88870
C    -1.63670   0.03215   1.99281
C    -0.46961   1.87435   0.69873
H    -3.28610   2.12822  -0.23305
H    -4.91784   1.35634  -0.27744
H    -3.95562   1.59572  -1.77985
H    -1.36353   0.66146  -1.46958
H    -1.93617  -2.11967  -0.60613
H     1.31434  -2.42984   1.18226
H    -0.43947  -2.31876   1.46916
H     0.67986  -1.53335   2.58762
H     1.02316   0.70563  -1.72490
H     3.20499   1.58684  -2.48499
H     5.22107   1.39058  -1.02239
H     5.01187   0.29509   1.21388
H     2.83069  -0.57670   1.97402
H    -2.46732   0.75208   2.02444
H    -1.13862   0.05930   2.97885
H    -2.06889  -0.97175   1.87649
H     0.04988   2.13387  -0.23050
H     0.12135   2.28995   1.53505
H    -1.43912   2.39321   0.70273
