23
Generated by autodE on: 2022-06-18. E = -351.521383 Ha
C    -3.57316   1.19868   0.31145
C    -2.56238   0.34675   0.03169
C    -2.82963  -1.03806  -0.50036
C    -1.17729   0.76233   0.24378
C    -0.07864   0.00416   0.00088
C     1.27590   0.46572   0.22639
C     2.42215  -0.22694   0.00708
C     2.47710  -1.63245  -0.52094
C     3.76139   0.39205   0.29208
H    -3.37585   2.20352   0.69758
H    -4.61828   0.91386   0.16145
H    -3.90760  -1.21947  -0.61493
H    -2.41834  -1.80855   0.17285
H    -2.34700  -1.18736  -1.48054
H    -1.03602   1.77841   0.63162
H    -0.21242  -1.00992  -0.38534
H     1.36916   1.48699   0.61530
H     2.99629  -2.29018   0.19853
H     1.49040  -2.06550  -0.72929
H     3.07170  -1.66800  -1.45088
H     4.32150  -0.20993   1.03019
H     4.38513   0.41311  -0.61969
H     3.67220   1.41873   0.67648
