16
Generated by autodE on: 2022-06-18. E = -472.208562 Ha
N     4.79474   0.82382  -0.27548
C     3.72120   0.37405  -0.13213
C     2.48159  -0.14341   0.03216
N     1.40260  -0.59972   0.18861
N     0.33249  -1.17394   0.37921
C    -0.88120  -0.49030   0.16193
C    -0.94358   0.84490  -0.27373
C    -2.18721   1.44735  -0.46587
C    -3.36821   0.73491  -0.22803
C    -3.29943  -0.59406   0.20601
C    -2.06338  -1.20874   0.40179
H    -0.02603   1.40663  -0.46150
H    -2.23262   2.48491  -0.80501
H    -4.33776   1.21377  -0.38065
H    -4.21630  -1.15736   0.39429
H    -1.99446  -2.24420   0.73985
