13
Generated by autodE on: 2022-06-09. E = -453.089104 Ha
C    -3.04159   0.10928  -0.24075
C    -1.57982  -0.00123  -0.10623
N    -0.67381   0.90337  -0.38244
C     0.60981   0.39930  -0.10648
C     1.79987   1.10499  -0.29385
N     2.80752   1.67941  -0.44422
C     0.44415  -0.91670   0.37342
O     1.15924  -1.81927   0.75757
O    -0.99976  -1.10338   0.34470
H    -3.51448  -0.04737   0.74166
H    -3.31460   1.09819  -0.62952
H    -3.41038  -0.67328  -0.92227
H    -0.88033   1.83411  -0.74372
