57
Generated by autodE on: 2022-06-09. E = -1582.019111 Ha. Imaginary frequency = -414.9 cm-1
C     4.51388 -16.26266  -0.27555
N     3.95681 -15.55998  -1.41430
C     2.63715 -15.46180  -1.59857
O     1.81121 -15.99333  -0.84650
C     2.14222 -14.72009  -2.87110
C     3.02978 -13.53990  -3.33947
C     2.38788 -12.31291  -3.91468
O     4.24721 -13.63595  -3.29285
C     2.23334 -15.77989  -4.03754
C     1.45316 -15.41786  -5.31606
C     0.25445 -16.32833  -5.61666
C    -0.70473 -16.63520  -4.46790
C    -1.42123 -15.41451  -3.77511
C    -2.40570 -16.10717  -2.80339
O    -3.46983 -16.58351  -3.12046
O    -1.88255 -16.20192  -1.58301
C    -2.65974 -16.89154  -0.59058
C    -2.17950 -14.63619  -4.85885
O    -3.09199 -15.08950  -5.51220
O    -1.66921 -13.42349  -5.03319
C    -2.27986 -12.58697  -6.02760
C    -0.43908 -14.58713  -3.04971
C     0.71658 -14.33428  -2.63979
C     0.45641 -12.92174  -1.05122
C     1.67330 -12.79991  -0.20867
N    -0.71764 -13.42726  -0.58653
C    -1.65880 -13.16119  -1.56941
C    -3.02342 -13.50648  -1.49445
N    -4.15470 -13.78406  -1.48600
C    -1.18005 -11.98782  -2.28020
O    -1.68656 -11.22680  -3.07180
O     0.13568 -11.84870  -1.85334
H     4.12094 -17.28896  -0.21838
H     5.60466 -16.30531  -0.38339
H     4.27141 -15.75433   0.67245
H     4.55218 -15.03035  -2.05048
H     1.42273 -12.51475  -4.39429
H     3.08825 -11.83610  -4.61307
H     2.19136 -11.61428  -3.08640
H     1.87125 -16.73160  -3.62316
H     3.30092 -15.92103  -4.25377
H     1.10546 -14.37779  -5.27686
H     2.13555 -15.46639  -6.17828
H    -0.30909 -15.90390  -6.46408
H     0.62601 -17.30790  -5.96221
H    -1.50796 -17.28408  -4.84631
H    -0.19429 -17.18628  -3.66515
H    -2.83743 -17.93042  -0.90193
H    -2.06228 -16.86319   0.32739
H    -3.61994 -16.37911  -0.44001
H    -1.72303 -11.64428  -6.00667
H    -3.33568 -12.41313  -5.77750
H    -2.20528 -13.05744  -7.01811
H     2.57287 -12.65528  -0.81863
H     1.78920 -13.69934   0.40680
H     1.56425 -11.92137   0.44747
H    -0.71972 -14.31672  -0.08637
