56
Generated by autodE on: 2022-06-25. E = -1510.593898 Ha. Imaginary frequency = -447.7 cm-1
C     1.78554   5.22522  -0.61747
O     1.25028   4.07068   0.04920
C     1.87490   2.92160  -0.16070
O     2.86835   2.80946  -0.86169
C     1.22579   1.73408   0.46737
C     0.49193   1.91356   1.75686
O    -0.10735   2.92007   2.08094
O     0.54737   0.82433   2.53115
C    -0.22168   0.84987   3.74360
N     1.95653   0.58596   0.24562
C     1.32633  -0.63507   0.21467
C     2.06566  -1.81659  -0.26037
C     3.12313  -1.73457  -1.18504
C     3.75842  -2.89181  -1.63460
C     3.34215  -4.14792  -1.17851
C     2.29010  -4.24052  -0.26220
C     1.65878  -3.08362   0.19619
C    -0.21844  -0.22015  -1.05906
C     0.22405  -0.80741  -2.38401
C    -1.21700  -1.04766  -0.32603
O    -1.32128  -2.25834  -0.52821
C    -2.03072  -0.41774   0.74185
O    -2.55291  -1.22227   1.70594
C    -3.55818  -2.18026   1.34473
C    -2.22642   0.93194   0.74675
O    -3.00223   1.65254   1.56360
C    -4.03935   1.05542   2.34956
C    -1.52050   1.79587  -0.25239
O    -1.90221   2.95050  -0.41624
C    -0.37341   1.22692  -0.99318
C     0.04817   2.03599  -2.19322
H     2.81855   5.41125  -0.29164
H     1.13762   6.06084  -0.33056
H     1.76212   5.07880  -1.70662
H    -1.26500   1.11502   3.52796
H     0.20445   1.57640   4.45016
H    -0.16115  -0.16337   4.15620
H     2.68519   0.74107  -0.45413
H     0.71199  -0.82713   1.09117
H     3.45578  -0.76720  -1.56789
H     4.58043  -2.81385  -2.34971
H     3.83965  -5.05243  -1.53608
H     1.96324  -5.21747   0.10106
H     0.83933  -3.15199   0.91386
H     0.31480  -1.89686  -2.31476
H     1.19274  -0.40166  -2.70229
H    -0.51131  -0.57586  -3.17195
H    -3.10570  -3.13961   1.05975
H    -4.19177  -2.31884   2.23242
H    -4.17711  -1.80567   0.51498
H    -3.62656   0.46372   3.17616
H    -4.62104   1.89618   2.74903
H    -4.68827   0.42574   1.72315
H     1.08338   1.82085  -2.48500
H    -0.05738   3.10936  -2.00202
H    -0.59368   1.78361  -3.05406
