12
Generated by autodE on: 2022-05-31. E = -306.615261 Ha
C    -2.43521  -0.49808  -0.12628
C    -1.41823   0.36461  -0.02704
C    -0.01373  -0.10592  -0.00573
O     0.34674  -1.26815  -0.06811
O     0.84483   0.92101   0.09216
C     2.23968   0.59368   0.11970
H    -3.47270  -0.15512  -0.14318
H    -2.25117  -1.57452  -0.19363
H    -1.57461   1.44385   0.04097
H     2.53243   0.07018  -0.80241
H     2.47062  -0.04318   0.98640
H     2.77452   1.54734   0.19891
