36
Generated by autodE on: 2022-05-31. E = -788.358247 Ha
C     2.34193  -2.67308  -1.03998
C     1.02505  -2.07829  -0.55588
O     0.03785  -2.86289  -0.46582
C     1.00378  -0.69244  -0.24600
C     2.24206   0.12414  -0.39795
C     3.31466  -0.01823   0.49979
C     4.49058   0.71921   0.33859
C     4.61243   1.62187  -0.72251
C     3.55338   1.77695  -1.62334
C     2.38296   1.03144  -1.46410
N    -0.16779  -0.02258   0.15666
C    -0.00269   1.38305   0.58590
C    -1.36267  -0.59196   0.23390
C    -2.64648   0.02127   0.53015
C    -3.02800   1.34926   0.22544
C    -4.31723   1.79997   0.50835
C    -5.25877   0.94845   1.09564
C    -4.90690  -0.37640   1.37927
C    -3.62522  -0.83622   1.08902
H     3.03528  -2.83390  -0.19871
H     2.85811  -2.03259  -1.76916
H     2.12584  -3.64883  -1.49733
H     3.21810  -0.71559   1.33517
H     5.31250   0.59291   1.04764
H     5.53018   2.20136  -0.84860
H     3.64261   2.47620  -2.45843
H     1.56351   1.14640  -2.17780
H     0.96214   1.48627   1.08963
H    -0.79971   1.63996   1.28799
H    -0.02859   2.06186  -0.27494
H    -1.34555  -1.66509   0.05082
H    -2.33366   2.02605  -0.26946
H    -4.59156   2.82726   0.25726
H    -6.26510   1.31078   1.31756
H    -5.63815  -1.05531   1.82409
H    -3.35699  -1.87367   1.30227
