24
Generated by autodE on: 2022-10-23. E = -664.304355 Ha
C     3.77670  -1.21697  -0.17374
N     2.34559  -1.02853  -0.03093
C     1.79300   0.19387  -0.11480
O     2.44970   1.22192  -0.30139
C     0.29732   0.26691   0.08227
N    -0.13726   1.44388   0.33905
C    -0.44833   2.56135   0.71717
C    -0.86464   3.68922   0.00721
N    -1.22704   4.70788  -0.43889
C    -0.64351  -0.87380   0.04564
C    -1.73023  -0.90860   0.93934
C    -2.63295  -1.97047   0.90873
C    -2.46793  -3.00862  -0.01512
C    -1.39767  -2.97463  -0.91360
C    -0.49000  -1.91406  -0.88956
H     4.13575  -0.77189  -1.11393
H     4.32932  -0.74836   0.65686
H     3.99229  -2.29207  -0.18205
H     1.76236  -1.83013   0.18484
H    -1.85862  -0.10260   1.66509
H    -3.46805  -1.99035   1.61255
H    -3.17502  -3.84092  -0.03637
H    -1.27051  -3.77448  -1.64645
H     0.32665  -1.88634  -1.61199
