55
Generated by autodE on: 2022-06-27. E = -1282.268936 Ha
C     3.62647   3.35545   0.71814
O     2.64172   2.36049   1.04316
C     2.26006   1.53577   0.06993
O     2.70051   1.58669  -1.05917
C     1.12992   0.59094   0.53959
C     1.28149   0.35202   2.06625
C     2.59590  -0.16019   2.59461
O     0.34907   0.56680   2.81860
C     1.17617  -0.72350  -0.30858
N     1.94909  -1.82243   0.21601
C     3.28254  -2.00297  -0.32277
C     1.29864  -2.87917   0.81778
C    -0.02926  -2.91416   1.05445
C    -0.91418  -1.77607   0.63423
C    -0.30509  -1.04720  -0.58453
C    -0.38818  -1.92183  -1.84668
N    -1.57977  -2.48256  -2.11711
O     0.59067  -2.09905  -2.57939
C    -0.90216   0.39835  -0.80552
C    -0.60899   0.93153  -2.22345
C    -2.40761   0.44229  -0.50938
C    -2.87740   0.69462   0.79040
C    -4.24418   0.68580   1.07741
C    -5.17619   0.42551   0.06827
C    -4.72415   0.18352  -1.23114
C    -3.35511   0.19861  -1.51701
N    -0.16347   1.15981   0.21524
C    -0.32721   2.59681   0.26518
H     3.80719   3.91339   1.64356
H     4.55214   2.87386   0.37304
H     3.24269   4.02451  -0.06492
H     2.89041   0.45534   3.45803
H     2.43681  -1.18842   2.95468
H     3.40071  -0.16736   1.85101
H     1.62915  -0.43595  -1.26137
H     3.26541  -2.36631  -1.36805
H     3.83536  -1.05170  -0.30162
H     3.83491  -2.72984   0.28977
H     1.95321  -3.70378   1.11284
H    -0.45748  -3.77126   1.57648
H    -1.03743  -1.04956   1.45088
H    -1.92992  -2.13020   0.41235
H    -2.40629  -2.29361  -1.56312
H    -1.68091  -3.02400  -2.97012
H     0.47228   1.00829  -2.39385
H    -1.04306   1.93473  -2.34096
H    -1.03234   0.29430  -3.01036
H    -2.15560   0.90043   1.57997
H    -4.58195   0.88535   2.09747
H    -6.24573   0.41780   0.29167
H    -5.43912  -0.01409  -2.03356
H    -3.03221   0.00954  -2.54003
H    -0.01046   2.97718   1.24710
H    -1.38837   2.85200   0.13854
H     0.24148   3.14346  -0.51384
