35
Generated by autodE on: 2022-07-28. E = -824.538013 Ha
C     2.33205   2.15444  -1.77061
O     1.59130   1.37243  -0.83658
C     2.32018   0.64997   0.07063
O     3.54998   0.72984   0.08729
C     1.49570  -0.13908   0.93568
C     1.93143  -0.96165   2.01477
C     3.40772  -1.04378   2.34663
O     1.11595  -1.62744   2.69504
N     0.07062  -0.08162   0.71723
C    -0.68312   0.67694   1.72570
C    -0.47583  -0.61133  -0.34395
C     0.31324  -1.48366  -1.25263
C    -1.86918  -0.29737  -0.72258
C    -2.78627  -1.32922  -0.98297
C    -4.08897  -1.02004  -1.37531
C    -4.47348   0.31403  -1.54529
C    -3.55427   1.34286  -1.31447
C    -2.25836   1.04295  -0.89544
H     2.99687   1.52224  -2.37881
H     2.93687   2.91863  -1.25912
H     1.59005   2.64025  -2.41661
H     3.82894  -0.05067   2.56171
H     3.98197  -1.45192   1.50132
H     3.52784  -1.69709   3.22194
H    -1.75045   0.43655   1.68317
H    -0.52944   1.75250   1.56315
H    -0.28401   0.39669   2.70653
H     0.70832  -0.86346  -2.07545
H    -0.34244  -2.24010  -1.70446
H     1.16037  -1.95126  -0.73556
H    -2.48392  -2.37060  -0.85687
H    -4.80496  -1.82469  -1.55547
H    -5.49074   0.55240  -1.86408
H    -3.84740   2.38459  -1.46122
H    -1.53621   1.84307  -0.72532
