35
Generated by autodE on: 2022-06-27. E = -824.538555 Ha
C    -2.78340   2.51066   1.48187
O    -2.00791   1.34634   1.20298
C    -1.95097   0.95083  -0.10837
O    -2.50682   1.61472  -0.98523
C    -1.17957  -0.24201  -0.27125
C    -0.82713  -0.86763  -1.50695
C    -1.32270  -0.26561  -2.80648
O    -0.10967  -1.89204  -1.55204
N    -0.71736  -0.91313   0.91367
C    -1.73087  -1.59437   1.73179
C     0.55691  -1.13556   1.10941
C     0.99336  -2.15185   2.10938
C     1.57422  -0.34044   0.39441
C     2.67840  -0.97382  -0.19731
C     3.64871  -0.21722  -0.85713
C     3.53793   1.17520  -0.90648
C     2.45135   1.81279  -0.29517
C     1.46690   1.06147   0.34391
H    -3.83249   2.37130   1.17938
H    -2.72708   2.66157   2.56723
H    -2.37677   3.39185   0.96289
H    -0.95294   0.76413  -2.92616
H    -2.42049  -0.21248  -2.83726
H    -0.95692  -0.88693  -3.63526
H    -2.69715  -1.11486   1.55376
H    -1.47925  -1.52897   2.79766
H    -1.79203  -2.65223   1.43337
H     2.07262  -2.32628   2.04657
H     0.76587  -1.78465   3.12503
H     0.45336  -3.10090   1.97483
H     2.76346  -2.06132  -0.16301
H     4.49551  -0.71806  -1.33124
H     4.30244   1.76675  -1.41543
H     2.37079   2.90177  -0.31670
H     0.62385   1.55690   0.82634
