62
Generated by autodE on: 2022-06-13. E = -1515.818301 Ha
C    -2.64682  -3.97588   1.70152
N    -1.56596  -3.10561   1.28242
C    -1.04335  -3.17684   0.04969
O    -1.29850  -4.08552  -0.74833
C    -0.01796  -2.08987  -0.29615
O    -0.16931  -0.90938   0.49626
C    -0.99459   0.03375  -0.23633
C    -0.75526   1.43684   0.28973
C    -0.13923   1.67115   1.52349
C     0.02139   2.97696   1.99560
C    -0.42978   4.06099   1.23855
C    -1.04978   3.83173   0.00580
C    -1.21648   2.52697  -0.46192
C    -2.47078  -0.35512  -0.00982
C    -3.24930  -1.00951  -0.97266
C    -4.54540  -1.44486  -0.66977
C    -5.08233  -1.23393   0.60045
C    -4.31485  -0.57627   1.56880
C    -3.02703  -0.13850   1.26260
C    -0.54437  -0.17099  -1.68989
C     0.72852   0.55681  -2.24748
O     1.02777  -0.33768  -3.33230
C     1.27929  -1.49083  -2.51415
C     2.31907  -0.93274  -1.54579
C     3.40815  -1.76654  -1.03028
C     4.74360  -1.16123  -0.67165
O     3.24875  -2.98839  -0.96990
C     1.93984   0.35789  -1.33207
C     2.46514   1.35935  -0.40574
C     2.97529   0.98412   0.85228
C     3.51003   1.93783   1.71545
C     3.53218   3.28642   1.34414
C     3.00419   3.67558   0.10883
C     2.46730   2.72300  -0.75727
C    -0.08365  -1.64707  -1.76515
H    -3.49413  -3.92420   0.99903
H    -2.31397  -5.02382   1.75805
H    -2.99167  -3.66222   2.69412
H    -1.39913  -2.24526   1.79444
H     0.96392  -2.52075  -0.04772
H     0.22604   0.82989   2.11082
H     0.51416   3.14612   2.95555
H    -0.29547   5.08136   1.60492
H    -1.40556   4.67227  -0.59469
H    -1.71229   2.35382  -1.41958
H    -2.85817  -1.20368  -1.97058
H    -5.13208  -1.95636  -1.43641
H    -6.09170  -1.57831   0.83704
H    -4.72291  -0.40221   2.56725
H    -2.43881   0.36878   2.02911
H    -1.34726   0.05581  -2.39675
H     0.54986   1.57518  -2.60385
H     1.58850  -2.35364  -3.11215
H     4.81523  -0.09169  -0.89868
H     4.94466  -1.32023   0.39885
H     5.51610  -1.71165  -1.23178
H     2.91250  -0.05801   1.16599
H     3.89537   1.63076   2.69032
H     3.94503   4.03551   2.02368
H     3.00506   4.72893  -0.17975
H     2.06029   3.03595  -1.71997
H    -0.75945  -2.28477  -2.34435
