34
Generated by autodE on: 2022-06-13. E = -824.273909 Ha
C     3.74182  -3.18444  -1.04507
N     2.74277  -2.16707  -0.80482
C     3.04914  -0.83773  -0.89081
O     4.17397  -0.45123  -1.28331
C     2.03041   0.11059  -0.52773
O     0.83651  -0.36886  -0.19781
C    -0.30881   0.17149   0.11629
C    -0.44927   1.62398   0.26897
C     0.50050   2.37870   0.98800
C     0.33634   3.75407   1.14680
C    -0.76660   4.40325   0.58114
C    -1.71161   3.66580  -0.13963
C    -1.55928   2.28800  -0.29226
C    -1.39528  -0.78543   0.27243
C    -2.57211  -0.44560   0.97672
C    -3.59638  -1.37756   1.13822
C    -3.47319  -2.66652   0.60858
C    -2.30950  -3.01740  -0.08809
C    -1.28351  -2.09244  -0.25901
H     3.25422  -4.16779  -1.06372
H     4.23806  -3.02364  -2.01387
H     4.52760  -3.20133  -0.26797
H     1.88391  -2.43247  -0.33623
H     2.20514   1.18341  -0.56827
H     1.35855   1.88362   1.44552
H     1.07354   4.32292   1.71786
H    -0.88838   5.48214   0.70135
H    -2.57185   4.16700  -0.58899
H    -2.29663   1.71940  -0.86098
H    -2.67378   0.54682   1.41699
H    -4.49577  -1.09665   1.69115
H    -4.27815  -3.39367   0.73645
H    -2.20629  -4.01982  -0.51023
H    -0.38932  -2.36817  -0.81970
