62
Generated by autodE on: 2022-06-13. E = -1515.677542 Ha. Imaginary frequency = -299.8 cm-1
C    -0.49868  -5.74239   0.11914
N     0.05938  -4.41139   0.02536
C    -0.53641  -3.34032   0.61571
O    -1.59380  -3.44678   1.26204
C     0.20807  -2.09899   0.43432
O    -0.17603  -0.90866   0.88391
C    -1.24646  -0.14489   0.77205
C    -0.97605   1.25848   1.13611
C     0.02341   1.59594   2.06523
C     0.25132   2.92961   2.40606
C    -0.49990   3.94883   1.81467
C    -1.48951   3.62391   0.87888
C    -1.73253   2.29228   0.54840
C    -2.65631  -0.60974   0.79021
C    -3.20716  -1.57107  -0.07998
C    -4.55854  -1.90924  -0.01330
C    -5.39642  -1.30977   0.93092
C    -4.86743  -0.36083   1.81060
C    -3.52009  -0.01021   1.73455
C    -0.82433  -0.24882  -1.76922
C     0.34400   0.57468  -2.36202
O     0.70092  -0.27498  -3.47787
C     0.92820  -1.44572  -2.65942
C     1.99697  -0.88168  -1.71132
C     3.11499  -1.72447  -1.29164
C     4.47234  -1.13277  -0.99917
O     2.96590  -2.95170  -1.26423
C     1.60417   0.40230  -1.47809
C     2.13982   1.41591  -0.57831
C     2.84679   1.05489   0.58759
C     3.44362   2.02516   1.38834
C     3.32227   3.37906   1.05902
C     2.58139   3.75577  -0.06562
C     1.98914   2.78615  -0.87446
C    -0.41566  -1.54505  -1.90744
H    -1.47061  -5.82097  -0.39752
H     0.19764  -6.45446  -0.34141
H    -0.65617  -6.03570   1.16957
H     0.88755  -4.25027  -0.54116
H     1.29303  -2.17534   0.43080
H     0.60776   0.80391   2.53364
H     1.02636   3.17347   3.13499
H    -0.31332   4.99251   2.07752
H    -2.07481   4.41422   0.40303
H    -2.50601   2.04399  -0.18055
H    -2.59048  -2.05609  -0.82776
H    -4.95796  -2.65018  -0.70954
H    -6.45408  -1.57899   0.97981
H    -5.50554   0.11116   2.56130
H    -3.12346   0.73014   2.42975
H    -1.82201   0.15431  -1.63621
H     0.10543   1.59406  -2.67873
H     1.22173  -2.31767  -3.25143
H     5.20457  -1.66467  -1.62720
H     4.74393  -1.32821   0.04963
H     4.53196  -0.05622  -1.19508
H     2.89779   0.00649   0.88012
H     3.98759   1.72577   2.28699
H     3.78381   4.14087   1.69138
H     2.46335   4.81263  -0.31466
H     1.42815   3.09207  -1.75870
H    -1.01253  -2.45283  -1.91328
