29
Generated by autodE on: 2022-06-13. E = -800.012159 Ha
C    -2.23306  -3.66665   0.69439
N    -1.88125  -2.29162   0.39752
C    -0.67519  -1.97305  -0.10895
O     0.19663  -2.81846  -0.34014
C    -0.40693  -0.51480  -0.34900
N     0.84153  -0.20659  -0.41920
C     2.00002   0.10663  -0.57266
C     2.95053   0.68098   0.38242
O     2.94711   1.86444   0.66428
O     3.83296  -0.21748   0.80881
C     4.85319   0.25889   1.70680
C    -1.40427   0.56910  -0.47192
C    -1.06181   1.87608  -0.06823
C    -1.97249   2.92203  -0.20849
C    -3.24137   2.68562  -0.74924
C    -3.58707   1.39521  -1.16035
C    -2.67781   0.34379  -1.02964
H    -3.28930  -3.70650   0.98673
H    -2.08223  -4.30696  -0.18778
H    -1.62084  -4.07285   1.51643
H    -2.53623  -1.55529   0.63650
H     5.47382  -0.61310   1.94093
H     4.39925   0.66094   2.62359
H     5.45593   1.03789   1.21888
H    -0.07566   2.06758   0.36077
H    -1.69205   3.92763   0.11317
H    -3.95607   3.50517  -0.85253
H    -4.56931   1.20349  -1.59823
H    -2.95330  -0.64952  -1.38498
