53
Generated by autodE on: 2022-06-06. E = -1289.005598 Ha
C    -0.79509  -2.70854   3.88684
O    -0.43913  -3.52169   2.75692
C     0.86019  -3.69537   2.52338
O     1.73714  -3.16145   3.16789
C     1.08860  -4.67288   1.34966
C     1.13121  -3.84417   0.04510
C     0.90374  -4.57982  -1.23968
O     1.36244  -2.64927   0.09519
N     0.11805  -5.75143   1.28287
C     0.63116  -6.90920   2.06237
C     0.19638  -8.20490   1.36684
C     0.12406  -6.82241   3.51679
C    -1.17344  -7.25521   3.83638
C    -1.69418  -7.07648   5.12020
C    -0.92486  -6.46518   6.11522
C     0.37045  -6.03881   5.81248
C     0.88906  -6.21726   4.52645
C     2.13278  -6.65709   1.97799
C     2.41460  -5.41219   1.56444
C     3.73690  -4.73209   1.34014
C     4.45631  -5.12247   0.03516
C     4.99550  -6.55475  -0.07172
C     3.94278  -7.67719  -0.18782
C     3.64656  -8.49730   1.06954
C     3.16615  -7.70849   2.30349
F     4.28418  -7.09542   2.89836
C     2.69389  -8.66908   3.32913
N     2.39221  -9.45344   4.12677
H    -0.39831  -1.69067   3.76740
H    -0.39835  -3.15645   4.80931
H    -1.89033  -2.69205   3.91270
H    -0.17795  -4.75082  -1.36296
H     1.38413  -5.56775  -1.22451
H     1.27054  -3.97437  -2.07885
H    -0.79214  -5.45151   1.62559
H    -0.89501  -8.22072   1.24095
H     0.48283  -9.09863   1.93884
H     0.64843  -8.25668   0.36652
H    -1.79508  -7.72843   3.07492
H    -2.70796  -7.41773   5.34359
H    -1.33167  -6.32556   7.11947
H     0.98678  -5.56501   6.58027
H     1.90324  -5.87795   4.31348
H     3.56449  -3.64785   1.32253
H     4.39961  -4.93203   2.19182
H     5.30619  -4.42928  -0.07789
H     3.78908  -4.92644  -0.82108
H     5.67553  -6.76112   0.77128
H     5.62332  -6.58491  -0.97672
H     4.28572  -8.40999  -0.93492
H     3.00221  -7.26485  -0.58759
H     2.87400  -9.24439   0.83481
H     4.53975  -9.05392   1.39664
