32
Generated by autodE on: 2022-07-27. E = -785.214107 Ha
C    -1.48271   1.79989   1.68422
O    -1.29410   1.19012   0.40946
C    -0.20168   1.58516  -0.30189
O     0.43418   2.58271   0.02824
C     0.06852   0.73057  -1.43355
N    -0.55374  -0.53901  -1.51358
C    -0.76717  -1.44332  -0.59111
C    -1.65109  -2.59293  -0.93474
C    -0.18245  -1.35374   0.75622
C    -0.93926  -1.75065   1.87242
C    -0.39472  -1.67239   3.15505
C     0.91834  -1.22930   3.33442
C     1.68965  -0.86698   2.22325
C     1.14357  -0.91760   0.94289
C     0.91449   1.11944  -2.52371
C     1.10413   0.10921  -3.64657
O     1.48948   2.22273  -2.60152
H    -0.59822   1.65179   2.32279
H    -2.35096   1.30423   2.13556
H    -1.67901   2.87820   1.58609
H    -0.91995  -0.78898  -2.43583
H    -2.61867  -2.47806  -0.41664
H    -1.20697  -3.53712  -0.58857
H    -1.84816  -2.64037  -2.01518
H    -1.96667  -2.09318   1.74237
H    -0.99928  -1.96130   4.01741
H     1.34473  -1.17131   4.33842
H     2.72286  -0.53927   2.35661
H     1.74867  -0.62730   0.08365
H     1.78536   0.53862  -4.39255
H     1.52365  -0.83830  -3.27252
H     0.14740  -0.12918  -4.14336
