21
Generated by autodE on: 2022-06-06. E = -503.699136 Ha
N    -0.78175   0.63514  -3.12370
C    -0.74425   0.76107  -1.97199
C    -0.70950   0.89266  -0.49588
F    -1.49704   1.99917  -0.18023
C     0.67036   1.02913  -0.01925
C     1.61152   0.47989   0.52163
C     2.32712  -0.48156   1.34778
C     1.23303  -1.26915   2.11217
C     0.30604  -2.16955   1.27389
C    -0.45062  -1.63319   0.03517
C    -1.31354  -0.36043   0.18978
H     3.01040   0.01554   2.05463
H     2.94092  -1.14793   0.71821
H     1.73131  -1.90962   2.85827
H     0.63461  -0.53883   2.68083
H     0.89300  -3.03552   0.92210
H    -0.43931  -2.58137   1.97584
H    -1.11122  -2.45003  -0.29378
H     0.25907  -1.49334  -0.79561
H    -2.31991  -0.50656  -0.23035
H    -1.43406  -0.07776   1.24672
