53
Generated by autodE on: 2022-06-06. E = -1288.906598 Ha. Imaginary frequency = -282.3 cm-1
C    -0.21400  -2.84898   4.13166
O    -0.35457  -3.57042   2.90365
C     0.68915  -3.53744   2.05409
O     1.67120  -2.84105   2.25545
C     0.45771  -4.37409   0.86766
C     0.76480  -3.83975  -0.44916
C     0.27352  -4.60244  -1.66517
O     1.43197  -2.80678  -0.59852
N    -0.33518  -5.49947   0.93800
C    -0.23990  -6.54548   1.77616
C    -1.03191  -7.75495   1.35903
C     0.02862  -6.39335   3.24590
C    -1.04805  -6.67276   4.10899
C    -0.91935  -6.52799   5.49224
C     0.29516  -6.11927   6.04708
C     1.37455  -5.85055   5.20112
C     1.24360  -5.98167   3.81849
C     1.96250  -6.91951   1.03511
C     2.48893  -5.83797   0.72435
C     3.61579  -4.93027   0.51074
C     4.66113  -5.10003   1.62937
C     5.36364  -6.46172   1.72521
C     4.59205  -7.67850   2.28283
C     3.83301  -8.56319   1.27477
C     2.31190  -8.33905   1.23740
F     1.77192  -8.81533   2.44594
C     1.71100  -9.16531   0.16393
N     1.26276  -9.80535  -0.69265
H    -0.19347  -1.76568   3.94055
H     0.70648  -3.14404   4.65359
H    -1.09018  -3.10886   4.73706
H    -0.82801  -4.65708  -1.69040
H     0.66428  -5.63195  -1.67788
H     0.61756  -4.07669  -2.56444
H    -0.71010  -5.77996   0.03303
H    -2.09034  -7.65211   1.65077
H    -0.63797  -8.65184   1.85127
H    -0.99366  -7.89253   0.26898
H    -2.00825  -6.98776   3.69950
H    -1.77587  -6.74062   6.13616
H     0.40045  -6.01191   7.12904
H     2.33320  -5.53199   5.61676
H     2.09795  -5.76382   3.18696
H     4.06748  -5.16434  -0.47001
H     3.29241  -3.88073   0.45883
H     4.18518  -4.85692   2.59446
H     5.43412  -4.33130   1.46456
H     6.23265  -6.30936   2.38595
H     5.78463  -6.72422   0.73801
H     3.91457  -7.36351   3.09329
H     5.33590  -8.33247   2.76243
H     4.21493  -8.40672   0.25412
H     3.97748  -9.62907   1.51079
