55
Generated by autodE on: 2022-06-24. E = -1378.095217 Ha
C     3.75481   0.23557  -1.97649
O     2.74362   0.74944  -1.11120
C     1.47924   0.13500  -1.13736
C     1.68367  -1.34188  -0.75413
O     1.84586  -2.18152  -1.62509
C     1.82359  -1.65377   0.68465
C     2.30720  -3.02155   1.04903
C     1.47778  -0.74251   1.63895
C     1.61172  -1.06395   3.09417
C     0.91269   0.58818   1.29391
O     0.73413   1.43799   2.15326
C     0.54022   0.88672  -0.16269
O     0.54345   2.25515  -0.45631
C     1.62654   3.10676  -0.08324
C    -0.89046   0.36480  -0.63496
C    -2.04681   1.33581  -0.37167
C    -2.05307   2.27036   0.67454
C    -3.17671   3.06850   0.90792
C    -4.31408   2.94876   0.10522
C    -4.32274   2.01061  -0.93010
C    -3.20322   1.20710  -1.15929
C    -1.25673  -0.97152   0.04425
C    -1.61657  -0.99319   1.40219
C    -1.86134  -2.20002   2.05673
C    -1.76750  -3.41134   1.36092
C    -1.44615  -3.39562   0.00334
C    -1.19844  -2.18254  -0.65054
N    -0.69600   0.18163  -2.09497
C     0.71226   0.26917  -2.47466
C     1.05292   1.53226  -3.14593
N     1.29525   2.50548  -3.72996
H     4.59202   0.94278  -1.91276
H     4.10158  -0.76063  -1.65905
H     3.41394   0.18128  -3.02260
H     1.56246  -3.53556   1.67784
H     2.49500  -3.62583   0.15414
H     3.23545  -2.96106   1.64059
H     0.95587  -1.90999   3.35760
H     1.34509  -0.20319   3.71747
H     2.64163  -1.37480   3.33086
H     2.37472   2.60560   0.54051
H     1.20917   3.95969   0.47463
H     2.12023   3.47781  -0.99414
H    -1.18065   2.38089   1.31432
H    -3.15710   3.79224   1.72637
H    -5.18882   3.57697   0.28894
H    -5.20745   1.89360  -1.56045
H    -3.24662   0.46001  -1.95397
H    -1.69911  -0.06193   1.96321
H    -2.12745  -2.19442   3.11617
H    -1.95402  -4.35740   1.87421
H    -1.38179  -4.33137  -0.55690
H    -0.94064  -2.17547  -1.70766
H    -1.26250   0.83688  -2.62471
H     1.00410  -0.54577  -3.15519
