29
Generated by autodE on: 2022-07-27. E = -688.602145 Ha
N     4.30117   1.10031  -2.44102
C     3.47413   0.60979  -1.76324
C     2.51308   0.01314  -0.95201
N     1.27135   0.56901  -0.84797
C     0.18787   0.18395  -0.17958
C    -0.96871   1.08518  -0.14236
C    -0.83593   2.48338  -0.30008
C    -1.95706   3.31279  -0.29750
C    -3.23647   2.77574  -0.12021
C    -3.38236   1.39488   0.05350
C    -2.26677   0.55937   0.04340
C     0.16710  -1.11880   0.51552
C    -0.26376  -1.19631   1.85306
C    -0.31343  -2.42518   2.51298
C     0.05730  -3.59711   1.84612
C     0.47891  -3.53259   0.51344
C     0.53772  -2.30492  -0.14654
H     2.74106  -0.88881  -0.38933
H     1.16373   1.44230  -1.36981
H     0.15224   2.93961  -0.39652
H    -1.82673   4.39092  -0.41702
H    -4.11196   3.42877  -0.11059
H    -4.37621   0.96233   0.19101
H    -2.39951  -0.51669   0.16252
H    -0.55834  -0.28416   2.37561
H    -0.64349  -2.46743   3.55350
H     0.01563  -4.55902   2.36225
H     0.75930  -4.44526  -0.01753
H     0.85935  -2.26733  -1.18913
