46
Generated by autodE on: 2022-06-20. E = -960.733194 Ha
C    -0.00228  -0.49911   3.97078
N    -0.63941  -0.19257   2.70634
C    -0.80903  -1.13963   1.76467
O    -0.61803  -2.34950   1.94285
N    -1.32832  -0.70515   0.53382
C    -0.73988  -1.23191  -0.69390
C     0.22825  -0.13201  -1.16047
C     0.51513  -0.23188  -2.66206
C     1.53873  -0.08918  -0.40200
C     2.01477  -0.97422   0.49301
C     3.27975  -0.80875   1.19301
C     3.74334  -1.57555   2.20904
C     5.07793  -1.29277   2.84045
C     3.00006  -2.74180   2.80038
C    -0.59789   1.13414  -0.74829
C    -1.51002   1.69538  -1.81321
C    -1.01813   2.68244  -2.67935
C    -1.81483   3.18482  -3.71080
C    -3.12027   2.71184  -3.88153
C    -3.62239   1.73915  -3.01139
C    -2.82271   1.23436  -1.98169
O    -1.36898   0.72041   0.40419
H    -0.27527   0.26395   4.71183
H     1.09752  -0.52682   3.88377
H    -0.34294  -1.47805   4.33203
H    -0.68667   0.77097   2.38968
H    -0.26338  -2.19558  -0.48858
H    -1.52338  -1.38564  -1.44885
H     1.13071   0.61331  -3.00419
H     1.06912  -1.16069  -2.86630
H    -0.41295  -0.24265  -3.25128
H     2.14455   0.79725  -0.62978
H     1.43096  -1.86291   0.73500
H     3.90133   0.03296   0.86458
H     5.59326  -0.44662   2.36256
H     5.73415  -2.17965   2.78092
H     4.96315  -1.06987   3.91638
H     3.55271  -3.68150   2.62119
H     2.93497  -2.62967   3.89662
H     1.97997  -2.85981   2.41518
H     0.08564   1.92606  -0.41127
H    -0.00066   3.05763  -2.54214
H    -1.41818   3.95295  -4.37910
H    -3.74677   3.10617  -4.68515
H    -4.64451   1.37208  -3.13227
H    -3.22470   0.48400  -1.29952
