39
Generated by autodE on: 2022-06-13. E = -811.453520 Ha
C     1.48353  -2.40618  -0.22425
C     1.03185  -0.97043  -0.14175
C    -0.26512  -0.59615   0.03578
C    -0.66319   0.82025   0.28621
C    -0.02859   1.59763   1.27130
C    -0.41378   2.92048   1.49725
C    -1.44408   3.49304   0.74374
C    -2.09464   2.72583  -0.22841
C    -1.71390   1.40009  -0.44734
C    -1.39452  -1.56857   0.01404
C    -2.35186  -1.56384   1.04593
C    -3.42530  -2.45605   1.03192
C    -3.57478  -3.36055  -0.02545
C    -2.64248  -3.36279  -1.06744
C    -1.56304  -2.47556  -1.04749
C     2.11836   0.04018  -0.29369
C     2.01731   1.05513  -1.26299
C     3.02933   2.00392  -1.41667
C     4.16581   1.95914  -0.60190
C     4.28501   0.94887   0.35764
C     3.27586  -0.00646   0.50332
H     0.70701  -3.11532   0.08756
H     1.79451  -2.66347  -1.25153
H     2.36849  -2.56176   0.41325
H     0.77343   1.15657   1.86531
H     0.09086   3.50651   2.26940
H    -1.74361   4.52918   0.91850
H    -2.90387   3.16210  -0.81927
H    -2.22753   0.80588  -1.20658
H    -2.24550  -0.85457   1.86993
H    -4.15078  -2.44425   1.84913
H    -4.41844  -4.05473  -0.04028
H    -2.75808  -4.05559  -1.90465
H    -0.84802  -2.47295  -1.87256
H     1.13179   1.09637  -1.89994
H     2.93076   2.78225  -2.17748
H     4.95645   2.70431  -0.71791
H     5.16859   0.90461   0.99921
H     3.37846  -0.78419   1.26342
