29
Generated by autodE on: 2022-07-27. E = -857.253192 Ha
C    -4.30515   1.15819  -0.55159
N    -2.95120   0.71882  -0.28184
C    -2.62751   0.13188   0.88032
O    -3.41600  -0.05890   1.81121
C    -1.19438  -0.30751   1.01497
C    -0.75143  -1.08613   2.17566
O    -0.47312  -0.01269   0.00520
C     0.83147  -0.22570  -0.33898
C     0.96246  -0.18825  -1.78414
O     0.01590  -0.03472  -2.55043
O     2.22472  -0.35232  -2.21727
C     2.41586  -0.33053  -3.63563
C     1.91296  -0.11967   0.62089
O     3.07244  -0.45585   0.42428
O     1.51715   0.47847   1.76487
C     2.49017   0.57438   2.80979
H    -5.00236   0.30545  -0.59701
H    -4.65656   1.84052   0.23734
H    -4.32279   1.68376  -1.51335
H    -2.24286   0.79249  -1.00702
H    -1.62181  -1.58866   2.61557
H    -0.29866  -0.43704   2.94394
H     0.02092  -1.80991   1.86833
H     2.11342   0.63962  -4.05712
H     1.83818  -1.13105  -4.12106
H     3.48859  -0.49121  -3.79656
H     3.33979   1.19698   2.49393
H     2.85676  -0.42338   3.09287
H     1.97769   1.04167   3.65897
