15
Generated by autodE on: 2022-06-17. E = -433.385606 Ha
C     3.01892   0.76351  -0.41427
N     2.53097  -0.29124   0.44290
N     1.28090  -0.41525   0.45088
N     0.40976   0.29672  -0.22166
C    -0.87300  -0.13836   0.05110
O    -1.18766  -1.05087   0.80793
O    -1.75559   0.58983  -0.64131
C    -3.13687   0.25611  -0.46235
H     2.60485   1.74136  -0.11470
H     4.11205   0.78789  -0.34807
H     2.71240   0.59736  -1.46112
H     0.89596  -1.16595   1.05818
H    -3.43505   0.38592   0.58850
H    -3.32865  -0.78258  -0.76953
H    -3.69928   0.94733  -1.10103
