27
Generated by autodE on: 2022-06-17. E = -814.990695 Ha. Imaginary frequency = -401.5 cm-1
C    -4.24321  -0.70859   0.29163
O    -2.84832  -0.74621   0.62697
C    -2.13614   0.34097   0.31274
O    -2.59987   1.33467  -0.21154
N    -0.81485   0.25311   0.74718
N    -0.27097  -0.94660   0.88923
N    -0.11030  -1.66453  -0.17246
C     0.72623  -2.82686   0.03057
C     0.86133   0.01622  -1.34110
C     2.21026  -0.44297  -1.05796
O     2.81009  -1.26362  -1.76404
C     2.86116   0.08768   0.17279
C     2.36770   1.14722   0.84128
C     1.15233   1.84109   0.35716
O     0.86492   2.96989   0.73103
C     0.29303   1.08152  -0.60419
H    -4.37579  -0.57563  -0.79167
H    -4.74644   0.10903   0.82745
H    -4.65132  -1.67566   0.60747
H     0.39793  -1.03433   1.67273
H     1.27078  -3.02373  -0.90183
H     0.07530  -3.69500   0.22749
H     1.44306  -2.71047   0.86259
H     0.41571  -0.30066  -2.28370
H     3.79084  -0.40332   0.47200
H     2.87243   1.57948   1.70892
H    -0.49322   1.68277  -1.06101
