57
Generated by autodE on: 2022-10-22. E = -1474.461862 Ha
C     2.04828   3.98461  -1.07237
N     1.82928   2.68373  -0.47429
C     1.69789   1.57739  -1.22411
O     1.99022   1.51616  -2.42022
C     1.26686   0.31499  -0.42301
C     2.51196  -0.12464   0.34013
C     3.63058  -0.56434  -0.38291
C     4.78017  -0.98930   0.28526
C     4.82950  -0.96563   1.68327
C     3.72312  -0.50853   2.40474
C     2.56900  -0.08754   1.73755
O     0.23686   0.65278   0.51206
C    -1.06312   0.32614   0.04591
C    -1.64739   1.57824  -0.66498
O    -0.95701   2.38529  -1.24732
O    -2.96564   1.67977  -0.56151
C    -3.58790   2.76278  -1.27028
C    -1.92199  -0.10624   1.22545
C    -1.48948   0.10463   2.53942
C    -2.26714  -0.33004   3.61748
C    -3.48495  -0.97617   3.39277
C    -3.92815  -1.17471   2.08030
C    -3.15543  -0.73734   1.00442
C    -0.86090  -0.77267  -1.05600
O    -1.70368  -0.39953  -2.12711
C    -1.66923  -1.13680  -3.33833
C    -1.05997  -2.28409  -0.65672
C    -0.37449  -2.57568   0.66773
C     0.93627  -2.57767   0.39596
C     1.03824  -2.26167  -1.09232
O    -0.15259  -2.89136  -1.59557
C     0.66836  -0.75875  -1.34339
H     2.37582   4.69184  -0.29928
H     2.82744   3.91635  -1.84325
H     1.12853   4.37366  -1.54291
H     1.38430   2.65161   0.43836
H     3.59959  -0.57896  -1.47422
H     5.64102  -1.33991  -0.28881
H     5.72826  -1.29941   2.20706
H     3.75372  -0.48335   3.49667
H     1.70212   0.24910   2.30408
H    -4.66143   2.67663  -1.06807
H    -3.39210   2.66985  -2.34826
H    -3.20598   3.72764  -0.90838
H    -0.53574   0.59780   2.72194
H    -1.91384  -0.16466   4.63807
H    -4.08893  -1.32171   4.23504
H    -4.88104  -1.67497   1.89233
H    -3.51061  -0.89289  -0.01455
H    -2.06520  -2.15739  -3.21711
H    -2.31189  -0.58947  -4.04222
H    -0.65228  -1.19720  -3.75795
H    -2.08171  -2.64943  -0.79396
H    -0.87669  -2.70960   1.62339
H     1.77343  -2.72212   1.07483
H     1.92646  -2.61308  -1.62628
H     0.86925  -0.50434  -2.38854
