17
Generated by autodE on: 2022-10-22. E = -422.092816 Ha
C     2.96538   0.38593   0.09605
O     1.91557  -0.45618  -0.37505
C     0.67595   0.02956  -0.23033
C     0.17404   1.16669   0.28178
C    -1.35242   0.94010   0.19660
C    -1.73059  -0.17742   1.20029
C    -1.21188  -1.29689   0.68654
C    -0.53589  -0.84148  -0.62786
O    -1.44369   0.19390  -1.04316
H     3.90876  -0.14114  -0.09400
H     2.85410   0.57658   1.17640
H     2.96116   1.34825  -0.44235
H     0.66900   2.01050   0.75544
H    -1.98745   1.83314   0.18239
H    -2.25038  -0.02258   2.14577
H    -1.18551  -2.30825   1.09060
H    -0.36009  -1.59389  -1.40482
