36
Generated by autodE on: 2022-05-29. E = -936.948350 Ha
C     3.42727  -0.18910   2.16134
N     2.46282   0.12357   1.12413
C     1.44561  -0.69851   0.84929
O     1.27591  -1.79255   1.38832
C     0.49123  -0.23128  -0.29624
C     1.29297  -0.25846  -1.62601
C     1.56880  -1.62212  -2.18721
O     1.64012   0.77154  -2.16834
O    -0.55194  -1.19409  -0.39319
C    -1.84198  -0.57775  -0.43329
C    -2.49914  -0.81607  -1.79444
C    -2.73879  -1.12154   0.70683
C    -2.07963  -1.91033   1.79362
O    -3.92748  -0.86203   0.68867
C    -1.55803   0.87213  -0.18032
C    -0.23664   1.09569  -0.09448
C     0.37378   2.43727   0.06368
C    -0.54240   3.62907   0.01923
O     1.58367   2.58736   0.21878
H     4.24197   0.54456   2.12177
H     3.84526  -1.19509   2.00944
H     2.97175  -0.15864   3.16527
H     2.42525   1.06919   0.72647
H     0.64452  -1.99552  -2.65754
H     2.36109  -1.56195  -2.94456
H     1.83372  -2.33680  -1.39414
H    -1.87736  -0.37319  -2.58552
H    -2.59394  -1.89770  -1.97208
H    -3.49787  -0.36095  -1.81959
H    -1.27442  -1.31361   2.24954
H    -2.82287  -2.19554   2.54899
H    -1.59591  -2.80333   1.36956
H    -2.35670   1.60943  -0.10820
H    -1.31409   3.55282   0.80068
H    -1.06147   3.67324  -0.95079
H     0.04539   4.54330   0.16809
