27
Generated by autodE on: 2022-07-26. E = -706.729958 Ha
C     3.22452   1.71399   2.15895
N     2.45106   1.33813   0.99623
C     1.31203   0.62915   1.10834
O     0.84739   0.27305   2.20577
C     0.61311   0.31192  -0.16200
O    -0.52649  -0.35878   0.10501
C    -1.65888  -0.44772  -0.50224
C    -2.04044   0.33759  -1.68550
C    -2.63193  -1.32680   0.20704
C    -2.16434  -2.03417   1.44519
O    -3.75737  -1.44645  -0.25980
C     1.20110   0.38813  -1.47961
C     0.74065  -0.54915  -2.57150
O     2.19023   1.11691  -1.69120
H     3.62088   0.83192   2.68936
H     2.61562   2.28707   2.87672
H     4.06840   2.33721   1.83812
H     2.75248   1.56966   0.04842
H    -1.43366   1.25576  -1.74241
H    -1.90409  -0.21651  -2.62881
H    -3.11036   0.57545  -1.60529
H    -1.56914  -1.36848   2.08619
H    -3.03231  -2.43306   1.98499
H    -1.50497  -2.86980   1.15373
H     1.64724  -0.93193  -3.06233
H     0.14140  -1.39511  -2.20940
H     0.16201  -0.00278  -3.33263
