27
Generated by autodE on: 2022-05-29. E = -706.735698 Ha
C    -3.22628   0.61098   2.41483
N    -2.54742   0.54823   1.13692
C    -1.23732   0.22284   1.06429
O    -0.50880   0.12472   2.06874
C    -0.72642  -0.09096  -0.28024
O     0.60420  -0.22869  -0.46746
C     1.59472   0.43231   0.03222
C     1.45539   1.67852   0.79443
C     2.92195  -0.11101  -0.36988
C     2.94983  -1.34172  -1.22950
O     3.93292   0.45664   0.02480
C    -1.51181  -0.59343  -1.38449
C    -0.77785  -1.19326  -2.56052
O    -2.75247  -0.50049  -1.39351
H    -2.70428   1.29778   3.09691
H    -3.28229  -0.37511   2.90871
H    -4.24702   0.98186   2.25798
H    -3.08216   0.39249   0.28022
H     0.61388   2.26249   0.37994
H     2.39537   2.24031   0.73497
H     1.20291   1.48582   1.85029
H     2.48101  -2.18710  -0.70138
H     2.37155  -1.17880  -2.15236
H     3.99086  -1.58608  -1.47408
H    -1.51336  -1.62051  -3.25401
H    -0.06968  -1.97051  -2.23617
H    -0.19443  -0.41830  -3.08306
