12
Generated by autodE on: 2022-06-16. E = -157.299004 Ha
C     1.56113  -0.61825   0.06750
C     0.67735   0.51577  -0.35850
C    -0.65248   0.62035  -0.20667
C    -1.58279  -0.37170   0.42496
H     2.34384  -0.26508   0.76195
H     1.01047  -1.43046   0.56317
H     2.09324  -1.04798  -0.79968
H     1.19406   1.34986  -0.85017
H    -1.13097   1.53312  -0.58398
H    -2.36496  -0.68471  -0.28908
H    -2.11410   0.07940   1.28171
H    -1.06982  -1.27595   0.78257
