46
Generated by autodE on: 2022-06-02. E = -1334.003802 Ha
C     0.00876   5.30190  -0.30695
N     0.20642   3.97059   0.22851
C    -0.72413   3.00335   0.05515
O    -1.84554   3.21744  -0.42217
N    -0.37295   1.74053   0.51329
N     0.99085   1.41441   0.69401
C     1.22414   0.21993  -0.12497
C     1.65739   0.57643  -1.56099
O     1.66913  -0.29672  -2.44111
N     2.02556   1.84190  -1.76292
C     2.48041   2.33853  -3.04599
C     2.30407  -0.64125   0.56495
O     2.53267  -0.49048   1.76881
N     2.89649  -1.56477  -0.19681
C     3.84257  -2.51662   0.35364
C    -0.13850  -0.53077  -0.17885
C    -0.41903  -1.54216   0.97205
O    -0.77610  -0.67472   2.06577
C    -1.87934  -0.03678   1.41437
C    -2.65023  -1.24591   0.92725
F    -3.95244  -1.22861   0.72218
C    -1.75386  -2.20773   0.63773
C    -1.88507  -3.49207  -0.05131
C    -3.26886  -4.03615  -0.27892
O    -0.87439  -4.07919  -0.43273
C    -1.17752   0.57981   0.16192
H    -0.94875   5.72237   0.03440
H     0.82031   5.94914   0.04894
H     0.01135   5.31246  -1.41039
H     1.12017   3.69325   0.57058
H     1.15049   1.13879   1.66634
H     1.98965   2.46106  -0.95856
H     1.94107   1.82825  -3.85531
H     3.56027   2.16727  -3.18859
H     2.28417   3.41671  -3.10576
H     2.62010  -1.61796  -1.17610
H     3.36031  -3.17577   1.09335
H     4.24113  -3.13111  -0.46230
H     4.67669  -1.99890   0.85095
H    -0.27716  -1.00162  -1.15586
H     0.39249  -2.22122   1.24653
H    -2.40494   0.67608   2.05762
H    -3.20812  -5.02958  -0.74185
H    -3.82215  -4.09344   0.67158
H    -3.83146  -3.35429  -0.93758
H    -1.88331   0.82960  -0.63630
