18
Generated by autodE on: 2022-06-02. E = -559.518304 Ha
C    -2.79874  -0.22655  -0.70691
C    -1.80060   0.61328   0.04716
O    -2.09467   1.71189   0.51842
C    -0.44839   0.08994   0.20282
C     0.17929  -0.97554  -0.32776
F    -0.27778  -1.90837  -1.13702
C     1.65502  -0.89756   0.09200
C     2.25797   0.30989  -0.66430
C     1.66897   1.37783  -0.11851
C     0.70502   0.80844   0.94592
O     1.47104  -0.33239   1.39946
H    -2.46364  -0.36140  -1.74832
H    -3.78086   0.26384  -0.69660
H    -2.87401  -1.23078  -0.26103
H     2.21299  -1.83976   0.09782
H     2.96583   0.23913  -1.48886
H     1.76637   2.43270  -0.37249
H     0.40459   1.46475   1.76824
