28
Generated by autodE on: 2022-06-02. E = -774.411385 Ha
C     5.06207   0.10404   0.37026
N     3.72210   0.59430   0.12282
C     2.64277  -0.18860   0.27926
O     2.68944  -1.37144   0.64587
N     1.43903   0.47840  -0.01943
N     0.43187  -0.32244   0.14114
C    -0.85837  -0.10935  -0.03292
C    -1.66405  -1.33481   0.27101
O    -1.08112  -2.37032   0.63898
N    -2.98850  -1.23993   0.12526
C    -3.86410  -2.36123   0.39263
C    -1.43039   1.18742  -0.47909
O    -2.66094   1.32776  -0.63096
N    -0.56422   2.18599  -0.70700
C    -1.02182   3.48786  -1.14673
H     5.17765  -0.23618   1.41174
H     5.77552   0.91557   0.18436
H     5.30854  -0.74169  -0.29169
H     3.57940   1.54989  -0.18712
H     0.65675  -1.29595   0.45688
H    -3.34211  -0.32986  -0.18487
H    -3.77635  -2.69666   1.43852
H    -4.90013  -2.05433   0.20571
H    -3.62506  -3.21904  -0.25622
H     0.43062   1.99330  -0.56344
H    -1.55180   3.42046  -2.11024
H    -1.71266   3.93571  -0.41482
H    -0.15290   4.14629  -1.26438
