46
Generated by autodE on: 2022-06-02. E = -1333.897554 Ha. Imaginary frequency = -244.7 cm-1
C     0.57059   5.36355  -0.37126
N     0.72899   4.01245   0.14478
C    -0.35768   3.15494   0.14491
O    -1.42728   3.46496  -0.38508
N    -0.20256   1.98139   0.83979
N     0.93415   1.32435   0.95971
C     1.61341   0.60251   0.05969
C     1.82252   0.89381  -1.39443
O     2.16180  -0.02444  -2.16728
N     1.65356   2.14563  -1.82740
C     1.82745   2.48575  -3.22639
C     2.41710  -0.46924   0.75993
O     2.34179  -0.56388   1.99614
N     3.14231  -1.29024  -0.00293
C     3.85011  -2.41914   0.56497
C    -0.49611  -0.66538  -0.54001
C    -0.58628  -1.68419   0.61461
O    -0.89612  -0.79900   1.71450
C    -2.04200  -0.19480   1.09631
C    -2.82514  -1.47282   0.76842
F    -4.14138  -1.50800   0.73255
C    -1.93035  -2.43226   0.46469
C    -2.07798  -3.79140  -0.04628
C    -3.46891  -4.35994  -0.14828
O    -1.08296  -4.43043  -0.38764
C    -1.42223   0.29087  -0.23217
H    -0.11810   5.97005   0.24141
H     1.55459   5.85026  -0.38535
H     0.18081   5.32935  -1.39787
H     1.40253   3.88733   0.89636
H     1.06153   0.88397   1.88625
H     1.48486   2.90441  -1.15890
H     1.17291   1.87067  -3.86215
H     2.86723   2.32667  -3.55467
H     1.56823   3.54306  -3.36057
H     3.03605  -1.17524  -1.01407
H     3.15227  -3.17652   0.95984
H     4.46697  -2.88040  -0.21565
H     4.50096  -2.09536   1.39053
H    -0.03067  -0.87393  -1.49914
H     0.28426  -2.31318   0.82115
H    -2.54228   0.54161   1.73134
H    -3.42111  -5.40452  -0.48241
H    -3.98551  -4.29668   0.82218
H    -4.06041  -3.76887  -0.86667
H    -1.86868   1.04381  -0.87649
