53
Generated by autodE on: 2022-06-07. E = -1558.053344 Ha
C   -10.50971  10.76290  -2.65931
N    -9.88730  10.76422  -1.34897
C   -10.14249  11.74009  -0.46481
O   -10.93962  12.64535  -0.71376
C    -9.28601  11.73690   0.84396
C    -8.89990  10.25339   1.09999
O    -7.98123   9.71925   0.46324
N    -9.66187   9.56165   1.95596
C    -9.34722   8.19045   2.31409
C    -8.04730  12.60837   0.39694
C    -7.25849  13.38169   1.44986
C    -6.38288  12.55869   2.39120
C    -7.06587  11.45428   3.19939
C    -8.29082  11.85143   4.06199
C    -8.78019  10.60230   4.84453
O    -9.93538  10.23600   4.87181
O    -7.79170   9.98888   5.47369
C    -8.13022   8.81190   6.23274
C    -7.80765  12.88402   5.12707
F    -7.84295  14.13703   4.64515
F    -8.57569  12.86470   6.23845
F    -6.55584  12.64960   5.53593
C    -9.52017  12.41185   3.34139
C    -9.97359  12.34908   2.05542
C   -11.37261  13.00507   2.07360
C   -12.51518  12.02652   1.73514
C   -11.41379  14.24778   1.28260
N   -11.46895  15.29994   0.79555
N   -11.60214  13.44828   3.46221
C   -10.57373  13.07928   4.13062
H   -11.60607  10.78056  -2.57062
H   -10.21080   9.85114  -3.19037
H   -10.20312  11.63957  -3.25299
H    -9.13325  10.10978  -1.15629
H   -10.34603  10.05237   2.52306
H   -10.13428   7.81039   2.97552
H    -9.29214   7.55733   1.41691
H    -8.37960   8.13017   2.83923
H    -8.44126  13.34987  -0.31174
H    -7.38380  11.93873  -0.16828
H    -7.93516  14.03411   2.02158
H    -6.59514  14.06520   0.89521
H    -5.59540  12.06191   1.80054
H    -5.85902  13.24685   3.07287
H    -6.32774  11.02101   3.88330
H    -7.34852  10.62791   2.54594
H    -7.19106   8.46378   6.67592
H    -8.85703   9.06558   7.01654
H    -8.55032   8.04571   5.56657
H   -13.47694  12.54183   1.86055
H   -12.44321  11.64790   0.71267
H   -12.46687  11.18806   2.44467
H   -10.51689  13.25623   5.20594
