10
Generated by autodE on: 2022-06-07. E = -264.352638 Ha
C     2.26713  -0.65518  -0.08007
N     1.07146  -0.47546  -0.08990
C    -0.20434  -0.29973   0.05630
C    -1.13946  -1.44775   0.33556
C    -0.70920   1.02468  -0.05849
N    -1.16385   2.09615  -0.14509
H     2.86736  -0.88174  -0.97470
H    -0.56619  -2.37904   0.43736
H    -1.86781  -1.56875  -0.48249
H    -1.70113  -1.27206   1.26704
