43
Generated by autodE on: 2022-06-07. E = -1293.566686 Ha
C     3.81948  -0.20956  -4.07032
N     2.93046   0.48517  -3.16060
C     2.15879  -0.17504  -2.29101
O     2.15153  -1.40504  -2.18306
C     1.30291   0.69026  -1.33126
C     0.73786   1.95617  -2.01958
O     1.50790   2.76165  -2.56235
N    -0.58474   2.14108  -1.98106
C    -1.20642   3.31979  -2.55569
C     0.26555  -0.11287  -0.69673
C    -0.50315  -0.49282   0.15651
C    -1.10452  -0.57093   1.48330
C    -0.74628  -1.86454   2.24254
O    -1.20625  -2.13300   3.32963
O     0.13661  -2.60779   1.59355
C     0.57836  -3.81208   2.24704
C    -2.63864  -0.48203   1.37951
F    -3.22578  -0.30748   2.56838
F    -3.14905  -1.59950   0.83336
F    -3.00656   0.54858   0.59868
C    -0.54714   0.65448   2.28509
C     0.97807   0.86150   2.19204
C     1.52826   1.78463   1.06877
C     2.23272   1.15098  -0.14608
H     4.37186   0.53099  -4.66141
H     3.26080  -0.86591  -4.75702
H     4.54052  -0.83361  -3.51951
H     2.82268   1.49935  -3.19789
H    -1.15666   1.47679  -1.46758
H    -2.29501   3.22282  -2.46744
H    -0.94049   3.42183  -3.61848
H    -0.88588   4.23544  -2.03364
H    -0.27370  -4.48574   2.41354
H     1.30361  -4.27083   1.56620
H     1.05275  -3.56769   3.20772
H    -1.06483   1.55214   1.91509
H    -0.84591   0.51175   3.33314
H     1.49327  -0.11326   2.16637
H     1.26869   1.31875   3.14960
H     2.28742   2.43186   1.53412
H     0.73410   2.47017   0.72865
H     2.81090   0.27060   0.17416
H     2.94247   1.87284  -0.57425
