53
Generated by autodE on: 2022-06-07. E = -1557.923379 Ha. Imaginary frequency = -158.8 cm-1
C   -10.60835  13.03936  -2.48728
N   -10.10566  12.07945  -1.52551
C    -9.57919  12.46926  -0.36184
O    -9.45253  13.65811  -0.04398
C    -9.05335  11.37407   0.59803
C    -9.58354   9.94393   0.34331
O    -9.80184   9.51296  -0.79933
N    -9.70450   9.16574   1.42636
C   -10.21681   7.81248   1.33942
C    -7.47948  11.29560   0.42664
C    -6.70479  12.45026   1.09193
C    -5.95640  12.12410   2.40069
C    -6.65708  11.38882   3.55530
C    -7.95384  12.01092   4.18160
C    -8.37462  11.05245   5.31092
O    -9.11997  10.11336   5.13221
O    -7.77594  11.32171   6.46142
C    -8.05016  10.43870   7.56471
C    -7.70381  13.43918   4.70218
F    -7.62150  14.31437   3.68403
F    -8.69822  13.86577   5.50219
F    -6.56096  13.53976   5.39576
C    -8.98752  12.01341   3.13452
C    -9.32161  11.78979   1.97919
C   -12.15137  12.02503   2.20905
C   -12.60555  10.63842   1.83028
C   -12.40933  13.10785   1.32402
N   -12.65218  13.95590   0.56010
N   -11.81568  12.31386   3.44213
C   -11.09093  12.46556   4.38869
H    -9.80975  13.71133  -2.84052
H   -11.40186  13.66136  -2.04367
H   -11.02053  12.49802  -3.34773
H   -10.14229  11.07192  -1.69602
H    -9.59550   9.59370   2.34238
H   -10.21157   7.36930   2.34259
H   -11.24753   7.80019   0.94890
H    -9.59219   7.19693   0.67461
H    -7.27596  11.25084  -0.65323
H    -7.15363  10.33227   0.84680
H    -7.37842  13.30322   1.24132
H    -5.93940  12.80251   0.38247
H    -5.09650  11.48009   2.14888
H    -5.51947  13.06197   2.77888
H    -5.92682  11.25988   4.36831
H    -6.95249  10.38047   3.23108
H    -7.47337  10.82961   8.41004
H    -9.12447  10.44559   7.79574
H    -7.72939   9.41683   7.31893
H   -13.70216  10.54516   1.90824
H   -12.32040  10.42405   0.79068
H   -12.14049   9.89621   2.49122
H   -11.30324  12.70526   5.43575
