11
Generated by autodE on: 2022-05-29. E = -231.350010 Ha
C    -1.99357   0.26167   0.09610
C    -0.74915   0.63342   0.42124
C     0.44541  -0.11673  -0.06263
C     1.78295   0.41573   0.37048
O     0.34035  -1.11052  -0.77286
H    -2.16216  -0.61290  -0.54014
H    -2.86987   0.81139   0.44964
H    -0.56606   1.50595   1.05518
H     1.83553   0.43354   1.47214
H     1.89310   1.46041   0.03411
H     2.59609  -0.19947  -0.03599
