25
Generated by autodE on: 2022-05-29. E = -685.404317 Ha
C     3.33170  -2.40209   1.13851
N     2.35245  -1.44355   0.67099
C     2.72177  -0.34120  -0.02472
O     3.91592  -0.08112  -0.27419
C     1.66679   0.54824  -0.47718
C     1.92344   1.71766  -1.19619
N     2.09675   2.70722  -1.80103
O     0.38307   0.20672  -0.16610
C    -0.70782   0.81779  -0.45059
C    -1.95934   0.28519  -0.01285
C    -3.13667   0.99246  -0.34834
C    -4.37768   0.51314   0.06064
C    -4.45984  -0.66999   0.80434
C    -3.29559  -1.37816   1.14095
C    -2.05086  -0.91066   0.73934
H     4.08693  -1.92345   1.78194
H     3.86342  -2.88793   0.30317
H     2.81763  -3.17669   1.72099
H     1.36712  -1.62639   0.82413
H    -0.65148   1.74773  -1.02789
H    -3.05973   1.91461  -0.92876
H    -5.28563   1.06122  -0.19900
H    -5.43447  -1.04445   1.12515
H    -3.36766  -2.30007   1.72165
H    -1.14212  -1.45672   0.99935
