36
Generated by autodE on: 2022-05-29. E = -916.751051 Ha. Imaginary frequency = -272.0 cm-1
C    -4.82758   0.23045  -0.27384
N    -3.40591  -0.04842  -0.32421
C    -2.70693  -0.32830   0.79345
O    -3.22753  -0.43163   1.91432
C    -1.24550  -0.48264   0.64659
C    -0.53184  -1.04421   1.73036
N     0.03286  -1.45177   2.66713
C    -0.49856   1.76392   1.11134
C     0.54335   1.93260   0.23572
C     0.43445   2.62028  -1.06155
C    -0.93816   2.95171  -1.59635
O     1.44847   2.92291  -1.69534
C     0.41829  -0.22469  -1.09668
C     1.64310  -0.87311  -0.66207
C     1.65118  -2.13263  -0.02960
C     2.86338  -2.74733   0.28402
C     4.07397  -2.11968  -0.02298
C     4.07351  -0.87818  -0.67384
C     2.87068  -0.26468  -1.00626
O    -0.77835  -0.42049  -0.61639
H    -5.20638   0.32239  -1.29903
H    -5.36743  -0.58440   0.23130
H    -5.04258   1.16668   0.26787
H    -2.90002   0.09220  -1.19226
H    -1.49835   2.13706   0.88565
H    -0.30525   1.49558   2.15048
H     1.56435   1.72268   0.56173
H    -1.59068   2.06577  -1.59122
H    -0.84666   3.34345  -2.61749
H    -1.41894   3.71104  -0.95856
H     0.37984   0.19586  -2.10490
H     0.71550  -2.65184   0.17514
H     2.86013  -3.72741   0.76568
H     5.01994  -2.60273   0.23184
H     5.01804  -0.39089  -0.92510
H     2.86244   0.70531  -1.50685
