34
Generated by autodE on: 2022-10-21. E = -986.057986 Ha
C     3.20385  -2.45139  -0.67544
N     2.03560  -1.59546  -0.78047
C     1.02366  -1.68741   0.08554
O     1.01392  -2.50678   1.00948
C    -0.11560  -0.64498  -0.10312
C    -1.55976  -1.11867   0.30205
O    -2.49531  -0.34358   0.11550
N    -1.67818  -2.34644   0.80579
C    -2.95414  -2.83337   1.29546
N    -0.22154  -0.28152  -1.51144
C    -0.07626   0.99923  -1.59216
C    -0.16281   1.63470  -2.87984
N    -0.23815   2.10768  -3.93689
C     0.19881   1.64785  -0.28156
O     0.40533   2.92538  -0.02174
C     0.26685   3.93197  -1.03651
C     0.19630   0.63451   0.64239
C     0.31142   0.70865   2.10134
C     0.74130   2.00552   2.72924
O     0.03987  -0.27921   2.78314
H     3.73465  -2.28179   0.27424
H     2.91823  -3.51320  -0.72339
H     3.88046  -2.22518  -1.50768
H     1.98198  -0.92069  -1.53634
H    -0.80856  -2.81136   1.07589
H    -3.73608  -2.69016   0.53640
H    -3.26449  -2.30349   2.21164
H    -2.86447  -3.90362   1.51860
H     0.43025   4.88763  -0.52562
H    -0.74545   3.91205  -1.46477
H     1.02669   3.80020  -1.81955
H    -0.02138   2.77859   2.54289
H     1.67713   2.36929   2.27850
H     0.86648   1.86185   3.81024
