34
Generated by autodE on: 2022-10-21. E = -985.921209 Ha. Imaginary frequency = -377.4 cm-1
C     3.48307  -2.45393   0.15684
N     2.31776  -1.79521  -0.40399
C     1.12426  -1.86684   0.20054
O     0.93219  -2.52713   1.23263
C     0.01373  -1.07180  -0.41778
C    -1.45291  -1.20462  -0.06418
O    -2.28819  -0.50337  -0.64036
N    -1.73074  -2.08731   0.90287
C    -3.04935  -2.13868   1.50015
N     0.25907  -0.26254  -1.39826
C     0.24907   0.89628  -1.78397
C     0.28428   1.51185  -3.03910
N     0.31108   2.15450  -4.01160
C     0.11064   2.16345  -0.05546
O     0.11981   3.33910  -0.63598
C    -1.18023   3.87366  -0.98288
C     0.07538   1.40869   0.93563
C     0.10172   0.61487   2.11802
C     1.46831   0.33439   2.70239
O    -0.92704   0.20992   2.67204
H     3.72858  -2.04441   1.14928
H     3.30760  -3.53502   0.26567
H     4.33331  -2.29589  -0.51658
H     2.42289  -1.24555  -1.25106
H    -0.92339  -2.49227   1.38428
H    -3.81925  -2.28561   0.72887
H    -3.27574  -1.20382   2.03929
H    -3.08742  -2.97656   2.20699
H    -0.99026   4.80867  -1.52226
H    -1.75545   4.06459  -0.06473
H    -1.72341   3.16480  -1.62525
H     1.72187   1.15201   3.39867
H     2.24841   0.29372   1.92996
H     1.43722  -0.60838   3.26501
