42
Generated by autodE on: 2022-05-30. E = -1219.002255 Ha
C    -2.59663  -2.95918   1.40186
O    -2.13982  -1.59613   1.50151
C    -1.86669  -0.97336   0.37335
O    -2.04225  -1.42015  -0.73554
C    -1.32923   0.47226   0.64417
C    -2.40163   1.41156   0.30247
N    -3.26571   2.14053   0.04812
N    -0.91186   0.69304   2.02690
O     0.38615   0.04216   2.09772
C     1.06751   0.17313   0.84123
C     1.51797  -1.26235   0.53675
O     0.75124  -2.20113   0.58789
O     2.81314  -1.37230   0.28491
C     3.29701  -2.68588  -0.04353
C     2.11554   1.30096   0.91665
C     2.73452   1.56732  -0.47989
C     1.61236   2.34071  -1.23176
C     0.42762   2.26099  -0.24399
C     1.18232   2.51657   1.07524
C    -0.00869   0.74907  -0.14779
C    -0.04495   0.15351  -1.54832
O     0.72143  -0.68490  -1.97061
O    -0.98298   0.74840  -2.27627
C    -1.16005   0.27578  -3.62088
H    -2.76982  -3.29110   2.43090
H    -1.81912  -3.56958   0.92264
H    -3.52544  -3.00311   0.81707
H    -1.48208   0.09896   2.63533
H     4.37119  -2.57322  -0.22709
H     2.78899  -3.05513  -0.94576
H     3.11936  -3.37801   0.79131
H     2.84414   1.12337   1.71681
H     3.02049   0.64385  -0.99568
H     3.63969   2.17995  -0.36737
H     1.39904   1.93818  -2.23060
H     1.87767   3.39849  -1.36652
H    -0.41116   2.92463  -0.48391
H     0.55734   2.49263   1.97180
H     1.73102   3.46844   1.04171
H    -0.23292   0.40610  -4.19633
H    -1.44554  -0.78559  -3.60867
H    -1.96506   0.88333  -4.04873
