29
Generated by autodE on: 2022-05-30. E = -728.831735 Ha
C     3.82947  -1.03138   0.29679
O     2.43054  -1.22240   0.54359
C     1.61345  -0.22028   0.18624
O     2.01608   0.81455  -0.31739
C     0.20241  -0.54548   0.46279
C    -0.86993   0.21889   0.14166
C    -0.91544   1.53506  -0.53420
O    -1.46237   1.70114  -1.60945
O    -0.34692   2.51204   0.17051
C    -0.30879   3.81138  -0.44021
C    -2.10844  -0.64218   0.32167
C    -2.04986  -1.69448  -0.83704
C    -0.82730  -2.57192  -0.45063
C    -0.32773  -1.90863   0.87531
C    -1.66766  -1.50412   1.52155
H     4.20510  -0.16412   0.85922
H     4.01362  -0.87527  -0.77621
H     4.32518  -1.94771   0.63747
H     0.16107   4.47548   0.29411
H     0.29032   3.77902  -1.36181
H    -1.32502   4.15890  -0.67442
H    -3.05447  -0.09314   0.39428
H    -2.98116  -2.27947  -0.84435
H    -1.94650  -1.20476  -1.81459
H    -0.03962  -2.57978  -1.21707
H    -1.12423  -3.61311  -0.25788
H     0.36105  -2.52362   1.46393
H    -2.33677  -2.35809   1.70404
H    -1.54170  -0.92211   2.44618
