39
Generated by autodE on: 2022-06-01. E = -1640.089735 Ha
C    -2.89540   3.61997   0.98537
O    -2.07367   2.62886   0.35324
C    -2.64951   1.89036  -0.60827
O    -3.80403   2.02497  -0.96498
C    -1.69907   0.91008  -1.14265
C    -1.93527  -0.20694  -1.86096
Cl   -3.40023  -0.85793  -2.44761
C    -0.60840  -0.95772  -1.93027
O     0.31604   0.13421  -1.93466
C    -0.21811   0.81549  -0.78271
C    -0.12059  -0.27226   0.32429
C    -0.41161  -1.55889  -0.50565
C     0.92138  -2.32484  -0.28235
C     1.17142  -3.45147  -1.17830
N     1.34517  -4.32577  -1.91749
N     1.98794  -1.33378  -0.21941
C     1.33834  -0.53821   0.84978
C     2.07829   0.66101   1.35911
C     3.32489   1.02657   0.83768
C     3.97945   2.16649   1.31501
C     3.39546   2.94548   2.31699
C     2.15004   2.58201   2.84108
C     1.49222   1.44748   2.36359
C     1.13096  -1.68106   1.85172
O     1.13039  -1.69621   3.04967
O     0.87056  -2.79059   1.09149
H    -3.76009   3.14732   1.47339
H    -3.24929   4.35331   0.24638
H    -2.25816   4.10838   1.73129
H    -0.45945  -1.63363  -2.77892
H     0.30871   1.75367  -0.58944
H    -0.82147  -0.08133   1.14347
H    -1.26437  -2.16300  -0.17845
H     1.99732  -0.79347  -1.08965
H     3.78796   0.42171   0.05730
H     4.95061   2.44478   0.89933
H     3.90771   3.83607   2.68845
H     1.68634   3.18720   3.62344
H     0.51783   1.17192   2.77093
