19
Generated by autodE on: 2022-06-01. E = -995.131157 Ha
C     3.62050   1.24781   0.15231
O     2.20282   1.23053  -0.05549
C     1.60726   0.02460  -0.04782
O     2.21232  -1.01912   0.12164
C     0.16782   0.14980  -0.26311
C    -0.80604  -0.76907  -0.11776
Cl   -0.73473  -2.40934   0.34512
C    -2.13928  -0.01305  -0.32755
C    -2.30760   0.91668   0.89621
C    -1.35652   1.84302   0.74953
C    -0.61734   1.45620  -0.55121
O    -1.71171   0.92413  -1.32424
H     4.13346   0.68185  -0.63914
H     3.91881   2.30201   0.11765
H     3.87316   0.81359   1.13075
H    -2.99584  -0.61738  -0.64268
H    -3.02619   0.76552   1.70037
H    -1.07982   2.67027   1.40185
H    -0.07210   2.24047  -1.08391
