37
Generated by autodE on: 2022-06-19. E = -1008.342982 Ha
C     3.79728   2.20933  -0.10672
O     2.76763   1.57846  -0.88433
C     1.67391   1.20274  -0.22899
O     1.46628   1.44435   0.94451
C     0.66203   0.53459  -1.15333
O    -0.54671   1.30399  -1.16955
N    -1.27840   0.89883  -0.02510
C    -1.54637   1.88804   0.89432
C    -1.39270   3.30690   0.42557
O    -1.93339   1.57923   2.01829
C    -0.84973  -0.45324   0.41728
N    -1.92076  -1.38155   0.65703
C    -2.19439  -1.70065   2.05471
C    -2.22393  -2.34703  -0.29145
C    -1.62514  -2.45892  -1.49247
C    -0.54125  -1.51587  -1.91013
C     0.16467  -0.84743  -0.70234
C     1.28822  -1.71719  -0.14639
N     0.93584  -2.94651   0.25995
O     2.44572  -1.29137  -0.07458
H     4.15802   1.51841   0.66914
H     4.60392   2.44752  -0.80907
H     3.41682   3.12640   0.36496
H     1.04504   0.52582  -2.17967
H    -1.80841   3.97549   1.18930
H    -0.32431   3.53009   0.28179
H    -1.89725   3.46806  -0.53757
H    -0.31015  -0.31728   1.36319
H    -1.40413  -2.33234   2.50035
H    -3.14816  -2.24197   2.12272
H    -2.27919  -0.77382   2.63478
H    -3.01151  -3.03974   0.01515
H    -1.95667  -3.23414  -2.18478
H     0.21878  -2.02587  -2.52279
H    -0.95495  -0.71208  -2.54345
H     1.65810  -3.57668   0.59725
H     0.00015  -3.30876   0.09232
