20
Generated by autodE on: 2022-06-19. E = -457.715352 Ha
C    -2.99330   0.15117   1.04816
N    -1.74665   0.42624   0.35244
C    -1.54539   1.68450  -0.22919
C    -0.37579   2.05200  -0.77588
C     0.83340   1.15065  -0.81906
C     0.53729  -0.16777  -0.12331
C     1.56562  -1.21342   0.00246
N     2.77542  -0.92759  -0.54101
O     1.36946  -2.30697   0.57053
C    -0.69075  -0.43452   0.40352
H    -3.06883   0.72164   1.98997
H    -3.85169   0.41726   0.41323
H    -3.05227  -0.91942   1.28182
H    -2.41472   2.34411  -0.20787
H    -0.29885   3.04814  -1.21763
H     1.70223   1.65767  -0.35240
H     1.14541   0.98207  -1.87069
H     3.51243  -1.62112  -0.47686
H     2.97043  -0.05557  -1.01590
H    -0.87520  -1.38932   0.89881
