17
Generated by autodE on: 2022-07-27. E = -550.540108 Ha
C     3.90479  -0.86738   0.45594
O     2.79940  -0.67799  -0.44204
C     1.62646  -0.37166   0.11514
O     1.42888  -0.24340   1.30374
C     0.62567  -0.22200  -0.96875
O    -0.59593   0.07541  -0.81258
N    -1.20289   0.31493   0.38095
C    -2.53037   0.59921   0.12296
C    -3.07031   0.60393  -1.28678
O    -3.23951   0.84602   1.10002
H     4.09076   0.05328   1.02791
H     4.76733  -1.10766  -0.17509
H     3.69253  -1.69420   1.14914
H     0.91312  -0.37063  -2.01236
H    -4.13876   0.84843  -1.24817
H    -2.93116  -0.37846  -1.76334
H    -2.54217   1.34528  -1.90579
