12
Generated by autodE on: 2022-05-31. E = -377.766671 Ha
C    -2.33321   0.50852  -1.10622
N    -2.15676  -0.51012  -0.08766
C    -1.02136  -0.85570   0.53649
O    -0.93070  -1.73572   1.39688
C     0.18957  -0.12142   0.15621
C     1.25892   0.41617  -0.06432
C     2.45742   1.03237  -0.32082
N     3.47478   1.55953  -0.54079
H    -3.06592   1.25983  -0.77568
H    -2.68977   0.05961  -2.04566
H    -1.38056   1.01547  -1.30271
H    -2.97601  -1.04310   0.20103
