27
Generated by autodE on: 2022-05-31. E = -757.115884 Ha
C     3.63265   1.14645   1.09413
N     3.56543  -0.28435   1.34087
C     2.67352  -1.12635   0.80443
O     2.61332  -2.34402   0.98552
C     1.69702  -0.53152  -0.12539
N     0.55028  -0.22057  -0.18412
C    -0.67900   0.18232  -0.33588
C    -1.74413  -0.82449  -0.56351
O    -2.92440  -0.48660  -0.77495
N    -1.37793  -2.12147  -0.53323
C    -2.34702  -3.18081  -0.73539
C    -0.87799   1.65711  -0.25891
O     0.08452   2.41475  -0.04903
N    -2.13589   2.09538  -0.42655
C    -2.46013   3.50470  -0.37968
H     3.85690   1.67158   2.03261
H     2.66640   1.51762   0.72610
H     4.41099   1.39544   0.35551
H     4.27279  -0.71492   1.93325
H    -0.42341  -2.37643  -0.30365
H    -1.82203  -4.14345  -0.72550
H    -3.11234  -3.18640   0.05784
H    -2.86243  -3.06747  -1.70151
H    -2.84484   1.38261  -0.61294
H    -2.17551   3.95071   0.58699
H    -3.54186   3.62444  -0.51683
H    -1.94039   4.06728  -1.17272
