39
Generated by autodE on: 2022-05-31. E = -1134.890950 Ha. Imaginary frequency = -259.3 cm-1
C    -4.44036  -1.79299  -1.07634
N    -3.21555  -1.37913  -0.41203
C    -2.04025  -1.42367  -1.04236
O    -1.83837  -1.84070  -2.18247
C    -0.89480  -0.82392  -0.31366
N     0.18789  -1.14399   0.09529
C     1.36555  -0.83790   0.57479
C     1.46419  -0.77608   2.06877
O     0.45864  -0.95984   2.76543
N     2.67754  -0.47095   2.55456
C     2.86746  -0.14404   3.95187
C     2.50050  -0.67775  -0.38168
O     3.60877  -0.27108   0.00529
N     2.24965  -0.95813  -1.67201
C     3.26413  -0.76957  -2.69165
C     0.35515   1.67980   0.36046
C     1.51425   2.17523   0.88347
N     2.50293   2.60451   1.34094
C    -0.75656   1.38312  -0.10743
C    -2.14025   1.71195  -0.50464
O    -2.96048   2.06668   0.34430
N    -2.41834   1.55878  -1.80819
C    -3.76732   1.72391  -2.31923
H    -4.54952  -1.27378  -2.04021
H    -5.28978  -1.54132  -0.43147
H    -4.44088  -2.87768  -1.26308
H    -3.26526  -0.91208   0.49086
H     3.39091  -0.23510   1.85979
H     2.41914  -0.91453   4.59540
H     3.94272  -0.08697   4.16278
H     2.40578   0.82551   4.20685
H     1.33422  -1.29440  -1.95221
H     2.85688  -1.09519  -3.65592
H     3.56185   0.28820  -2.76812
H     4.16500  -1.36097  -2.46640
H    -1.69573   1.19084  -2.42059
H    -3.81217   1.30872  -3.33288
H    -4.48775   1.19388  -1.67911
H    -4.05667   2.78615  -2.35652
