49
Generated by autodE on: 2022-06-27. E = -1128.555293 Ha
C     1.34658  -0.02937   2.92726
C     1.91205   0.32737   1.58561
O     3.11556   0.38248   1.38795
C     0.93666   0.63763   0.41494
C     1.75009   1.56159  -0.55885
C     2.54884   1.00905  -1.71176
O     1.81928   2.75104  -0.29867
C     0.47834  -0.72265  -0.23634
N     1.21859  -1.89440   0.21504
C     2.41031  -2.23808  -0.54064
C     0.61670  -2.85515   0.99636
C    -0.62686  -2.75317   1.50988
C    -1.45412  -1.52826   1.27827
C    -1.06936  -0.77709  -0.02395
C    -1.75151  -1.43132  -1.22497
N    -1.52862  -2.74436  -1.39769
O    -2.46006  -0.77703  -2.00121
C    -1.44728   0.73560   0.09678
C    -2.77505   0.97270   0.81875
C    -1.44937   1.42693  -1.30835
C    -2.64610   2.20762  -1.77769
O    -0.41320   1.45651  -1.95890
N    -0.30936   1.22712   0.87779
C    -0.36749   2.57353   1.41211
H     2.17065  -0.15671   3.64119
H     0.65378   0.74831   3.27718
H     0.77338  -0.96676   2.85984
H     2.06179   0.19616  -2.25927
H     2.78246   1.83456  -2.39758
H     3.49425   0.62243  -1.29883
H     0.64558  -0.63837  -1.31400
H     2.84444  -3.16142  -0.13511
H     2.18303  -2.39927  -1.61042
H     3.16925  -1.44655  -0.46466
H     1.23376  -3.73811   1.17897
H    -1.01406  -3.55732   2.13680
H    -1.32229  -0.82466   2.11445
H    -2.52513  -1.77812   1.25060
H    -1.05486  -3.28875  -0.67916
H    -2.01114  -3.22489  -2.15167
H    -3.57723   0.40742   0.32638
H    -2.71621   0.65509   1.86585
H    -3.05387   2.03348   0.81069
H    -2.51891   2.45460  -2.84004
H    -3.59118   1.67693  -1.61785
H    -2.68862   3.14810  -1.20164
H    -0.47085   3.36376   0.64566
H    -1.21557   2.65925   2.10885
H     0.54831   2.78758   1.97774
