29
Generated by autodE on: 2022-06-27. E = -670.821698 Ha
C    -3.19492   0.56606   0.36325
C    -1.85725  -0.05134   0.64767
O    -1.32322  -0.00017   1.74122
C    -1.23275  -0.91939  -0.43053
C    -2.10494  -1.86938  -1.17268
N     0.05998  -0.90617  -0.60954
C     0.66504  -1.87214  -1.54543
C     0.88687   0.17057  -0.14700
C     2.07341  -0.13265   0.60383
C     2.26289  -1.55826   1.10012
O     2.92718   0.72037   0.91386
C     0.38493   1.48076  -0.43593
C     1.27267   2.68858  -0.25017
O    -0.79221   1.65855  -0.82946
H    -3.36069   0.73400  -0.70784
H    -3.27187   1.51154   0.91675
H    -3.97892  -0.11326   0.73975
H    -3.15609  -1.75371  -0.88878
H    -1.79826  -2.90826  -0.96954
H    -2.00763  -1.71034  -2.25958
H     1.73561  -1.66944  -1.62106
H     0.21296  -1.74969  -2.54016
H     0.49518  -2.89875  -1.19575
H     2.86862  -1.52230   2.01618
H     1.31211  -2.06894   1.30708
H     2.81834  -2.15308   0.35692
H     2.25110   2.56477  -0.73257
H     1.46813   2.84546   0.82235
H     0.75047   3.56601  -0.65574
