34
Generated by autodE on: 2022-07-27. E = -691.264693 Ha
C     2.83771  -2.97694   0.58555
N     1.58100  -2.29398   0.36980
C     1.46923  -0.93503   0.62560
O     2.44300  -0.34821   1.16756
C     0.23731  -0.30686   0.24795
C    -0.06008   1.10990   0.29703
C    -1.38068   1.60186   0.09069
C    -1.67934   2.96260   0.14571
C    -0.68315   3.91111   0.40458
C     0.62458   3.45279   0.60867
C     0.93518   2.09512   0.55692
N    -0.81919  -1.18948  -0.17994
C    -1.46871  -2.01492   0.85322
C    -1.28510  -1.17528  -1.40536
C    -0.59395  -0.39396  -2.45865
C    -2.53341  -1.91297  -1.75309
H     2.69493  -4.05227   0.41093
H     3.64528  -2.62201  -0.08218
H     3.18521  -2.83900   1.62020
H     0.96097  -2.69829  -0.32223
H    -2.19858   0.90434  -0.10137
H    -2.71248   3.28403  -0.01484
H    -0.91896   4.97689   0.44520
H     1.42672   4.16921   0.80991
H     1.95805   1.76706   0.72477
H    -2.39064  -1.51462   1.18790
H    -0.78405  -2.10153   1.70111
H    -1.71334  -3.01431   0.47195
H     0.47671  -0.28868  -2.23609
H    -1.02377   0.62394  -2.49825
H    -0.75841  -0.86109  -3.43951
H    -2.90735  -1.58744  -2.73122
H    -2.32365  -2.99565  -1.80951
H    -3.31732  -1.77012  -0.99499
