46
Generated by autodE on: 2022-07-02. E = -1002.449176 Ha
C     4.29381   0.71688   4.24280
O     2.93876   0.26719   4.08943
C     2.36798   0.46353   2.89858
O     2.92508   1.01948   1.97341
C     0.96961  -0.13870   2.85873
C     0.22672   0.33364   1.69690
C    -0.20297   0.31491   0.56405
C    -0.50962  -0.18455  -0.78234
C    -2.00379  -0.54012  -0.85292
C    -2.47293  -1.76984  -1.32990
C    -3.84768  -2.02698  -1.40693
C    -4.77130  -1.05872  -1.00987
C    -4.31128   0.17432  -0.53246
C    -2.94161   0.42658  -0.45484
C    -0.14291   0.82070  -1.88617
C     0.84210   1.79433  -1.66542
C     1.22813   2.66312  -2.68986
C     0.63726   2.56791  -3.95365
C    -0.33943   1.59436  -4.18395
C    -0.72689   0.72822  -3.15730
C     0.44403  -1.42146  -0.92834
C     0.46475  -2.43219   0.23894
C     1.52444  -2.22945   1.36027
C     1.05811  -1.69455   2.72947
H     4.35748   1.80327   4.08620
H     4.95117   0.20454   3.52557
H     4.58170   0.46404   5.26965
H     0.48518   0.10477   3.81643
H    -1.77459  -2.54222  -1.65131
H    -4.19320  -2.99399  -1.78047
H    -5.84322  -1.26146  -1.06981
H    -5.02298   0.94164  -0.21823
H    -2.58874   1.39122  -0.08170
H     1.31675   1.86518  -0.68409
H     1.99432   3.41835  -2.49803
H     0.93622   3.24851  -4.75437
H    -0.80706   1.50871  -5.16791
H    -1.49313  -0.02517  -3.34835
H     0.18428  -1.92878  -1.86936
H     1.45870  -1.02066  -1.07302
H    -0.53903  -2.51390   0.68684
H     0.66097  -3.41637  -0.21460
H     2.35259  -1.60583   0.98167
H     1.97223  -3.21493   1.56273
H     0.06230  -2.10010   2.96722
H     1.74170  -2.04896   3.51615
