80
Generated by autodE on: 2022-07-02. E = -1693.703729 Ha. Imaginary frequency = -294.1 cm-1
C     2.44392  15.92066  12.32134
N     1.36714  16.62082  11.65758
C     1.18553  17.96124  11.80345
O     1.93180  18.61356  12.56243
C     0.09711  18.58436  11.01054
C    -0.16030  20.02338  11.20262
C    -1.48382  20.48978  11.38325
C    -1.76600  21.84408  11.56260
C    -0.73313  22.78702  11.58646
C     0.58579  22.34424  11.43946
C     0.87149  20.99035  11.25459
C     1.16067  18.08167   8.89978
C     0.41682  17.22680   8.36242
C     0.45422  16.15756   7.28920
C    -0.87807  16.06816   6.52062
C    -1.65732  14.90414   6.48474
C    -2.86909  14.86950   5.78515
C    -3.32308  15.99917   5.10194
C    -2.54515  17.16230   5.11372
C    -1.33655  17.19081   5.81087
C     0.78307  14.81248   7.96481
C     1.60720  13.85309   7.35854
C     1.88109  12.63575   7.99181
C     1.33435  12.34721   9.24472
C     0.49457  13.28565   9.85207
C     0.22449  14.49616   9.21121
C     1.56812  16.54638   6.26583
C     2.98171  16.67121   6.86418
C     3.60486  18.07085   6.78217
C     2.79261  19.22717   7.37297
C     2.27007  19.05080   8.82921
C     3.42897  18.71348   9.75199
O     3.86481  17.59834   9.95636
O     3.97148  19.81385  10.28371
C     5.06304  19.62137  11.19579
C    -1.56170  17.77878   9.45518
C    -1.66367  19.06081   8.67680
C    -2.69628  16.83124   9.18507
N    -1.00647  17.76234  10.69689
C    -1.52048  16.80538  11.69315
H     2.31934  14.84256  12.15012
H     3.43429  16.22398  11.94263
H     2.42117  16.10873  13.40533
H     0.95737  16.17365  10.84606
H    -2.30223  19.76879  11.39969
H    -2.80304  22.16252  11.69805
H    -0.95143  23.84798  11.72922
H     1.40958  23.06258  11.46832
H     1.90857  20.68146  11.16107
H    -1.32949  14.01145   7.01665
H    -3.46089  13.95078   5.78013
H    -4.27127  15.97427   4.55967
H    -2.88235  18.05411   4.57970
H    -0.74601  18.10814   5.81357
H     2.04946  14.04332   6.38124
H     2.53324  11.91029   7.49922
H     1.55691  11.39953   9.74061
H     0.04455  13.07869  10.82608
H    -0.45185  15.20682   9.67627
H     1.55181  15.81135   5.44723
H     1.27077  17.49831   5.80667
H     3.66040  15.97172   6.35075
H     2.97187  16.35023   7.91442
H     4.59312  18.03549   7.27088
H     3.80148  18.32037   5.72475
H     1.90739  19.43362   6.75219
H     3.41096  20.13884   7.35113
H     1.89357  20.03660   9.13777
H     4.71403  19.06318  12.07635
H     5.39266  20.62490  11.48829
H     5.88383  19.07575  10.70961
H    -0.79709  19.71550   8.78677
H    -2.55457  19.60491   9.04154
H    -1.82036  18.84245   7.61575
H    -2.97263  16.87555   8.12628
H    -2.47061  15.79073   9.44662
H    -3.58010  17.13930   9.77330
H    -2.60338  16.95601  11.80606
H    -1.05016  17.00757  12.65866
H    -1.34286  15.75508  11.42461
