37
Generated by autodE on: 2022-06-04. E = -8451.297581 Ha
C     0.08253  -2.84163  -2.34478
C     0.50870  -2.28042  -1.01541
O     0.88330  -2.99420  -0.11189
C     0.60512  -0.70733  -0.86157
C     2.10095  -0.47269  -0.98533
C     2.94204  -0.51446   0.13683
C     4.32584  -0.41453  -0.01143
C     4.89432  -0.28728  -1.28290
C     4.06625  -0.27676  -2.40734
C     2.68015  -0.38011  -2.26115
N    -0.19998  -0.11653  -1.93561
C    -0.02981   1.28040  -2.37136
N    -1.50356  -0.40009  -1.47637
C    -2.57375  -0.38249  -2.44336
C    -1.66270  -0.21070  -0.12188
C    -2.64986  -1.14855   0.54137
Br   -2.71270   1.72927   0.26298
C    -0.16553  -0.18132   0.41501
Br   -0.00585  -1.19364   2.09891
Br    0.53224   1.62141   0.86203
H    -0.98314  -2.64693  -2.52717
H     0.64610  -2.37426  -3.16368
H     0.26104  -3.92453  -2.33136
H     2.52133  -0.62617   1.13441
H     4.96349  -0.43838   0.87524
H     5.97796  -0.20710  -1.39586
H     4.49641  -0.19484  -3.40803
H     2.04930  -0.39508  -3.15005
H    -0.52066   2.00501  -1.70702
H    -0.45853   1.37686  -3.38020
H     1.03540   1.52317  -2.43437
H    -2.93907   0.64533  -2.61532
H    -2.19899  -0.80008  -3.38645
H    -3.41241  -0.99731  -2.09393
H    -2.27623  -2.18190   0.46387
H    -2.79081  -0.89307   1.59591
H    -3.62232  -1.08714   0.03957
