9
Generated by autodE on: 2022-06-04. E = -7838.712483 Ha
C    -2.43652   0.75728   0.00404
C    -1.16586  -0.02689   0.07520
Br   -1.44383  -1.88247   0.43962
C     0.08495   0.43943  -0.08735
Br    1.65690  -0.60820   0.01438
Br    0.42058   2.27888  -0.45232
H    -3.08571   0.35751  -0.79118
H    -2.98778   0.67447   0.95405
H    -2.24483   1.81766  -0.19918
