28
Generated by autodE on: 2022-07-27. E = -612.551295 Ha
C    -3.50274   0.81668  -1.50372
N    -2.38601  -0.04369  -1.19204
N    -1.42245   0.46488  -0.50994
C    -1.35188   1.92440  -0.25820
C    -0.47158  -0.35574   0.04965
C    -0.79510  -1.71288   0.44732
C    -2.22857  -2.16859   0.63950
O     0.11265  -2.51261   0.74256
C     0.91057   0.14692   0.17935
C     1.66378  -0.07560   1.34980
C     2.97187   0.39555   1.45957
C     3.55982   1.10661   0.40655
C     2.82607   1.33639  -0.76081
C     1.52016   0.85514  -0.87580
H    -4.00923   1.20647  -0.60170
H    -3.21401   1.68533  -2.12152
H    -4.22926   0.22165  -2.07140
H    -2.26393   2.21856   0.27767
H    -1.29809   2.46928  -1.20873
H    -0.48174   2.14867   0.36012
H    -2.93998  -1.34953   0.80469
H    -2.57109  -2.73389  -0.24056
H    -2.23069  -2.85361   1.50117
H     1.21263  -0.61799   2.18156
H     3.53525   0.21452   2.37835
H     4.58375   1.47708   0.49604
H     3.27557   1.88365  -1.59307
H     0.96567   1.02399  -1.80180
