28
Generated by autodE on: 2022-06-04. E = -612.551149 Ha
C    -2.20726  -2.78447  -0.06292
N    -1.19625  -1.75595  -0.07364
N    -1.56066  -0.56213   0.23383
C    -2.97215  -0.28204   0.57700
C    -0.62359   0.44438   0.22841
C    -0.86912   1.82636   0.57772
C     0.33884   2.74485   0.47987
O    -1.95028   2.32961   0.94717
C     0.75335   0.02570  -0.16699
C     1.15343   0.06856  -1.51183
C     2.45089  -0.29643  -1.88086
C     3.36605  -0.71152  -0.90787
C     2.97683  -0.75938   0.43479
C     1.67883  -0.39385   0.80135
H    -2.67689  -2.92133   0.92787
H    -3.02157  -2.60039  -0.78688
H    -1.71740  -3.72706  -0.33829
H    -3.24635  -0.89245   1.44666
H    -3.07646   0.77911   0.80008
H    -3.59906  -0.57008  -0.27619
H     0.75406   2.75483  -0.53912
H     1.14755   2.41529   1.14948
H     0.02563   3.75991   0.75779
H     0.43902   0.39676  -2.27088
H     2.74969  -0.25373  -2.93114
H     4.38161  -0.99464  -1.19512
H     3.68783  -1.08021   1.20011
H     1.37507  -0.42763   1.85054
