37
Generated by autodE on: 2022-06-04. E = -8451.239564 Ha. Imaginary frequency = -366.4 cm-1
C    -0.47697  -3.05799  -1.94048
C     0.51080  -2.28937  -1.08768
O     1.20686  -2.90078  -0.28368
C     0.76956  -0.83651  -1.32709
C     2.20318  -0.45079  -1.29383
C     2.93045  -0.51457  -0.09273
C     4.29731  -0.23246  -0.07650
C     4.96462   0.10586  -1.25765
C     4.25633   0.14797  -2.46213
C     2.88907  -0.13527  -2.48216
N    -0.16127  -0.08978  -1.96286
C     0.11220   1.23799  -2.54182
N    -1.40984  -0.45661  -1.70101
C    -2.42707   0.05289  -2.59487
C    -1.72041  -0.10407   0.22202
C    -2.64854  -1.25238   0.51541
Br   -2.75116   1.58698   0.16689
C    -0.44794  -0.04973   0.81973
Br   -0.01958  -1.28631   2.22195
Br    0.49259   1.60785   1.00305
H    -1.40482  -3.24355  -1.38172
H    -0.73948  -2.54751  -2.87424
H    -0.01137  -4.03214  -2.15470
H     2.41979  -0.78325   0.82935
H     4.84427  -0.27646   0.86835
H     6.03449   0.32687  -1.24123
H     4.77022   0.39205  -3.39479
H     2.35457  -0.12921  -3.43378
H    -0.58329   1.96501  -2.10771
H    -0.02540   1.20407  -3.63146
H     1.13338   1.54662  -2.31449
H    -2.48528   1.15084  -2.67020
H    -2.25344  -0.35344  -3.60578
H    -3.40020  -0.31765  -2.24791
H    -2.10249  -2.20301   0.47345
H    -3.08625  -1.14633   1.52044
H    -3.46421  -1.29022  -0.21809
