40
Generated by autodE on: 2022-06-17. E = -807.783925 Ha
C    -0.02790  -0.59965  -2.61950
C     0.08021   0.45387  -1.79808
C     0.79364   1.71271  -2.20470
C    -0.48758   0.46006  -0.39225
C    -1.77842  -0.38451  -0.21415
C    -2.81578   0.26078   0.67275
C    -4.12887   0.40583   0.41457
C    -5.03497   1.07367   1.41479
C    -4.81656  -0.05723  -0.84028
C    -1.23636  -1.62559   0.44648
N    -0.05764  -1.57009   0.93447
C     0.49254  -0.21151   0.67975
C     0.36861   0.52491   1.95054
N     0.23582   1.09769   2.95111
C     1.95874  -0.26687   0.26735
C     2.83462   0.78689   0.55933
C     4.16130   0.74715   0.12149
C     4.62510  -0.34847  -0.61176
C     3.75546  -1.40482  -0.90095
C     2.42941  -1.36457  -0.46408
H    -0.54106  -1.52044  -2.33122
H     0.41225  -0.57561  -3.62065
H     1.21875   1.63383  -3.21568
H     0.10132   2.57223  -2.17873
H     1.60813   1.94692  -1.50013
H    -0.66072   1.50297  -0.09797
H    -2.22294  -0.63818  -1.18413
H    -2.43706   0.63226   1.63159
H    -5.51977   1.96070   0.97026
H    -4.49378   1.38869   2.31908
H    -5.85173   0.39403   1.71567
H    -4.13522  -0.49470  -1.58166
H    -5.58525  -0.81152  -0.59710
H    -5.34996   0.78405  -1.31552
H    -1.84013  -2.53562   0.54816
H     2.48195   1.64890   1.12962
H     4.83280   1.57604   0.35665
H     5.66229  -0.38161  -0.95338
H     4.11018  -2.26701  -1.47053
H     1.75407  -2.18932  -0.69065
