23
Generated by autodE on: 2022-06-17. E = -351.521382 Ha
C     3.54841   1.30018   0.13577
C     2.55632   0.39039   0.01798
C     2.85526  -1.07206  -0.19179
C     1.16077   0.81798   0.09459
C     0.07845   0.00575  -0.00367
C    -1.28712   0.48205   0.08063
C    -2.41865  -0.26261  -0.00202
C    -2.44253  -1.75164  -0.20060
C    -3.77233   0.38085   0.10425
H     4.60080   1.00771   0.08284
H     3.32801   2.36120   0.28857
H     2.40791  -1.43839  -1.13076
H     2.42875  -1.68518   0.61948
H     3.93824  -1.25581  -0.23037
H     0.99639   1.89169   0.24601
H     0.23471  -1.06595  -0.15381
H    -1.40294   1.56269   0.22816
H    -3.00827  -2.00607  -1.11431
H    -2.97577  -2.23964   0.63438
H    -1.44527  -2.20317  -0.27950
H    -3.70582   1.46881   0.25131
H    -4.37015   0.18688  -0.80453
H    -4.34616  -0.05097   0.94393
