40
Generated by autodE on: 2022-06-17. E = -807.707372 Ha. Imaginary frequency = -351.5 cm-1
C     1.77549   1.85488  -1.32024
C     0.58824   1.23740  -1.53073
C     0.35650   0.38910  -2.75520
C    -0.47830   1.34272  -0.55283
C    -1.74907   0.80008  -0.70330
C    -2.81359   1.09917   0.26172
C    -4.12346   0.77431   0.15900
C    -5.09642   1.14011   1.24467
C    -4.71964   0.03638  -1.00723
C    -1.55301  -1.26639  -0.03834
N    -0.55646  -1.36452   0.63739
C     0.51913  -0.70270   1.09109
C     0.31386   0.12878   2.21889
N     0.15197   0.82358   3.14551
C     1.84401  -0.93390   0.53277
C     2.94879  -0.17866   0.97569
C     4.20212  -0.34192   0.38374
C     4.38080  -1.25488  -0.65999
C     3.28645  -2.00413  -1.11007
C     2.03164  -1.84823  -0.52445
H     2.59869   1.76909  -2.03409
H     1.94635   2.45924  -0.42532
H     1.26125   0.33038  -3.37626
H    -0.46193   0.79423  -3.37377
H     0.06307  -0.63510  -2.47405
H    -0.27118   1.94422   0.33616
H    -2.04258   0.44166  -1.69231
H    -2.48313   1.61430   1.17109
H    -5.90621   1.77842   0.84791
H    -4.60986   1.67248   2.07523
H    -5.58897   0.23781   1.64952
H    -3.98866  -0.22679  -1.78283
H    -5.20491  -0.89368  -0.66276
H    -5.51535   0.64034  -1.47830
H    -2.42353  -1.90928  -0.20590
H     2.82146   0.54385   1.78447
H     5.04531   0.25377   0.74158
H     5.36270  -1.38087  -1.12139
H     3.41235  -2.71988  -1.92609
H     1.18741  -2.43963  -0.88344
