20
Generated by autodE on: 2022-06-19. E = -457.715343 Ha
C     3.09802   0.23894   0.66829
N     1.81400  -0.20363   0.14953
C     1.77603  -1.18110  -0.85302
C     0.63439  -1.57318  -1.44018
C    -0.71553  -1.00333  -1.08068
C    -0.57182   0.07028  -0.01426
C    -1.74313   0.80058   0.49585
N    -2.93928   0.45995  -0.04695
O    -1.67617   1.68530   1.37368
C     0.64344   0.39213   0.51229
H     3.69315  -0.62164   1.01076
H     2.93459   0.91070   1.52026
H     3.67950   0.77852  -0.09854
H     2.74673  -1.60329  -1.11941
H     0.68509  -2.34594  -2.21068
H    -1.39125  -1.81392  -0.73766
H    -1.21042  -0.59773  -1.98667
H    -3.77207   0.94195   0.27314
H    -3.03433  -0.25038  -0.76124
H     0.71767   1.16736   1.27665
