24
Generated by autodE on: 2022-07-27. E = -605.608003 Ha
C    -2.44922  -0.73087  -2.68694
N    -1.73172   0.05144  -1.70702
N    -0.85435  -0.59835  -1.05280
C    -0.01903  -0.18342  -0.07893
C     0.83815  -1.29082   0.39870
O     0.72388  -2.42874  -0.10874
N     1.71619  -1.01506   1.37378
C     2.60159  -2.02399   1.91240
C     0.02305   1.19362   0.42867
O     0.81541   1.53344   1.33908
N    -0.82679   2.08023  -0.12557
C    -0.85853   3.46156   0.30423
H    -2.13573  -1.78892  -2.70488
H    -2.29811  -0.29693  -3.68929
H    -3.53029  -0.68297  -2.47653
H    -0.69723  -1.61474  -1.24152
H     1.71928  -0.04729   1.70702
H     3.25867  -2.44427   1.13348
H     3.22791  -1.56788   2.68904
H     2.03928  -2.85940   2.36083
H    -1.44684   1.73714  -0.86268
H    -1.62360   3.99423  -0.27410
H    -1.10323   3.54599   1.37551
H     0.11297   3.95730   0.14505
