14
Generated by autodE on: 2022-06-19. E = -270.687340 Ha
C    -2.26137  -0.65555  -0.11724
C    -0.96750   0.10047  -0.11134
C    -1.10014   1.57394  -0.35632
C     0.20473  -0.55206   0.10623
C     1.52278   0.05701   0.13978
O     2.55631  -0.57602   0.34213
H    -2.94069  -0.24874   0.65188
H    -2.11977  -1.73006   0.06309
H    -2.77601  -0.51806  -1.08403
H    -0.15083   2.12154  -0.35152
H    -1.76327   2.01402   0.40779
H    -1.59744   1.74118  -1.32683
H     0.19250  -1.63397   0.27614
H     1.57786   1.15582  -0.02894
