28
Generated by autodE on: 2022-06-19. E = -741.043417 Ha
C     3.12712   2.01311  -0.69129
N     2.68015   0.80602  -0.02243
C     1.65803   0.08792  -0.51297
O     1.15077   0.29678  -1.61709
C     1.22840  -1.09927   0.32029
C     2.26826  -1.96886   0.94383
N    -0.03924  -1.43840   0.37453
C    -0.39789  -2.75618   0.93833
C    -1.10550  -0.57719   0.03588
C    -2.27043  -1.13502  -0.51386
N    -3.24448  -1.59348  -0.97602
C    -1.04814   0.82166   0.36031
O    -0.13055   1.39438   0.94500
O    -2.16731   1.47733  -0.03453
C    -2.23851   2.86792   0.28737
H     3.38447   1.80022  -1.73854
H     2.34135   2.78698  -0.68007
H     4.01551   2.39744  -0.17592
H     2.96938   0.64886   0.93814
H     2.36063  -2.91631   0.38504
H     2.00771  -2.22562   1.98199
H     3.24879  -1.48185   0.92923
H     0.21397  -3.54170   0.48103
H    -1.45517  -2.95251   0.74143
H    -0.23040  -2.74169   2.02416
H    -3.19148   3.22442  -0.12217
H    -2.21883   3.02312   1.37660
H    -1.40409   3.41975  -0.17086
