28
Generated by autodE on: 2022-07-27. E = -741.042154 Ha
C    -2.58637   0.84757   2.44785
N    -2.37400   0.48698   1.05849
C    -1.38962  -0.35651   0.71169
O    -0.71375  -0.97949   1.53350
C    -1.20983  -0.58291  -0.77392
C    -2.41105  -0.74817  -1.64353
N    -0.00422  -0.73797  -1.27184
C     0.12786  -1.21820  -2.66412
C     1.19490  -0.40111  -0.60321
C     2.32313  -1.20991  -0.81534
N     3.27089  -1.87674  -0.98742
C     1.36095   0.75021   0.24424
O     2.38013   0.98310   0.89224
O     0.30917   1.59754   0.23385
C     0.37143   2.72167   1.11313
H    -3.41905   1.55853   2.50507
H    -2.83295  -0.04062   3.04832
H    -1.68496   1.31280   2.87909
H    -2.82954   1.03812   0.33760
H    -3.33208  -0.54081  -1.08953
H    -2.36020  -0.08250  -2.52047
H    -2.47557  -1.78135  -2.02398
H    -0.46649  -2.12746  -2.80843
H    -0.22395  -0.43514  -3.34968
H     1.18048  -1.42778  -2.87044
H    -0.59438   3.23254   1.02153
H     0.52745   2.39503   2.15150
H     1.18489   3.40256   0.82161
