36
Generated by autodE on: 2022-06-17. E = -725.772346 Ha
C     3.06079  -0.89178   0.00503
N     1.81450  -0.67380  -0.71630
C     1.85747   0.18837  -1.80007
C     0.79714   0.87072  -2.27613
C    -0.54043   0.76363  -1.60581
C    -0.36150   0.46939  -0.09996
C     0.17660   1.69429   0.64503
N    -0.47796   2.85446   0.45064
O     1.14776   1.62684   1.40768
C     0.60065  -0.72032   0.08567
N    -0.24480  -1.90438  -0.16732
C     0.12788  -3.03121   0.67189
N    -1.62738  -1.53075   0.04628
C    -1.66196  -0.14100   0.54839
C    -1.58756  -0.13386   2.08142
C    -2.96610   0.52067   0.11282
H     2.99760  -1.80943   0.60640
H     3.88633  -1.01480  -0.71103
H     3.31054  -0.05130   0.67966
H     2.83999   0.26699  -2.27430
H     0.91226   1.48653  -3.16992
H    -1.12923   1.67826  -1.76112
H    -1.14109  -0.04688  -2.05503
H    -0.16395   3.68100   0.94957
H    -1.27931   2.93276  -0.16300
H     0.93628  -0.72215   1.13229
H     0.05102  -2.81074   1.75628
H     1.16843  -3.31485   0.45369
H    -0.50998  -3.89797   0.44708
H    -2.06207  -1.52449  -0.87725
H    -2.44440  -0.69256   2.48597
H    -0.67097  -0.60372   2.46193
H    -1.63328   0.89367   2.47254
H    -3.09578   0.50829  -0.97855
H    -3.81779  -0.01451   0.56040
H    -3.00779   1.56371   0.45728
