20
Generated by autodE on: 2022-06-17. E = -457.715337 Ha
C     3.14825   0.32802   0.29607
N     1.82009  -0.19662   0.02457
C     1.68609  -1.42451  -0.63538
C     0.49326  -1.93947  -0.97283
C    -0.81586  -1.24980  -0.67778
C    -0.57074   0.08024   0.01638
C    -1.68786   0.95737   0.40143
N    -2.93039   0.50702   0.09392
O    -1.53675   2.05476   0.97637
C     0.68966   0.50772   0.31084
H     3.06144   1.24656   0.88968
H     3.74584  -0.40122   0.86520
H     3.68653   0.56264  -0.63766
H     2.62681  -1.93327  -0.85353
H     0.46979  -2.90518  -1.48291
H    -1.38943  -1.10677  -1.61637
H    -1.46099  -1.90675  -0.05863
H    -3.72993   1.07952   0.34138
H    -3.09197  -0.37642  -0.37239
H     0.83762   1.46672   0.80988
