36
Generated by autodE on: 2022-06-17. E = -725.720443 Ha. Imaginary frequency = -336.9 cm-1
C     2.62491  -1.69066  -1.27637
N     1.74005  -0.54319  -1.28615
C     1.14783  -0.17162  -2.48811
C     0.24258   0.81561  -2.60263
C    -0.19761   1.61920  -1.41160
C     0.23443   0.97204  -0.11052
C    -0.01642   1.62636   1.14225
N    -0.70063   2.81784   1.11717
O     0.30974   1.13664   2.26134
C     1.14465  -0.13593  -0.07539
N     0.22847  -1.65440   0.61043
C     1.04103  -2.26003   1.65284
N    -0.90434  -1.17062   1.15329
C    -1.81621  -0.55236   0.41708
C    -2.07477  -0.96302  -0.99127
C    -2.85576   0.25261   1.12158
H     3.32145  -1.62100  -0.42774
H     2.08308  -2.65050  -1.19886
H     3.22021  -1.70547  -2.20020
H     1.49889  -0.72875  -3.36037
H    -0.14826   1.06536  -3.59128
H     0.21265   2.65156  -1.49378
H    -1.29608   1.76863  -1.43758
H    -0.74904   3.33391   1.98865
H    -0.77350   3.35288   0.26050
H     1.85672  -0.13097   0.75531
H     0.58564  -3.19784   2.01436
H     2.02918  -2.50672   1.24712
H     1.18520  -1.59108   2.52576
H    -0.82763  -0.82547   2.11997
H    -1.24734  -1.53790  -1.41540
H    -2.99382  -1.57838  -1.01217
H    -2.26830  -0.08816  -1.62797
H    -2.98597   1.21984   0.61202
H    -3.83108  -0.26437   1.09665
H    -2.58059   0.45286   2.16653
