61
Generated by autodE on: 2022-06-08. E = -1622.439840 Ha
C    -4.99636   2.71248   0.73254
N    -3.99964   1.98519  -0.02746
C    -2.69408   1.99216   0.30985
O    -2.22244   2.75208   1.17125
C    -1.79840   1.07149  -0.41976
C    -1.91190  -0.23098  -0.77027
C    -2.97068  -1.22089  -0.54429
C    -3.18091  -2.25328  -1.47873
C    -4.18184  -3.20420  -1.27350
C    -4.97848  -3.14972  -0.12559
C    -4.76499  -2.14092   0.82047
C    -3.76972  -1.18550   0.61606
C    -0.51546  -0.60317  -1.27271
O    -0.03712   0.62606  -1.82172
C    -0.33961   1.43600  -0.68060
C     0.47767   0.74307   0.45138
C     0.33910  -0.75266   0.03100
C     1.79748  -1.25602  -0.16455
C     1.89692  -2.19131  -1.39626
C     2.61112  -1.66523  -2.60250
O     1.37669  -3.29225  -1.36737
C     2.31181  -2.07092   1.06328
C     1.42068  -3.09215   1.69826
O     3.43370  -1.83792   1.47569
N     2.58425  -0.04546  -0.33919
C     1.99679   1.03021   0.45649
C     2.29974   2.42292  -0.11493
O     2.07309   3.42626   0.57154
N     2.76627   2.43145  -1.36589
C     2.98579   3.64431  -2.12518
C     2.54072   0.99785   1.89779
O     1.89995   0.71689   2.88752
O     3.84843   1.25174   1.90578
C     4.53369   1.10438   3.15980
H    -5.89923   2.83786   0.12123
H    -4.60996   3.70363   1.00517
H    -5.27034   2.18241   1.66155
H    -4.31744   1.28081  -0.68526
H    -2.56582  -2.30047  -2.37947
H    -4.33878  -3.99298  -2.01276
H    -5.75845  -3.89723   0.03667
H    -5.37137  -2.10420   1.72840
H    -3.59209  -0.41988   1.37295
H    -0.45364  -1.42144  -1.99526
H    -0.12662   2.49406  -0.85780
H     0.04978   0.97205   1.43014
H    -0.19470  -1.36737   0.75982
H     2.58076  -2.41561  -3.40283
H     3.65321  -1.41495  -2.35009
H     2.13306  -0.72877  -2.92857
H     0.76348  -2.56340   2.41016
H     2.02664  -3.81604   2.25910
H     0.78473  -3.59179   0.95749
H     3.56166  -0.20989  -0.09468
H     2.82992   1.51774  -1.81224
H     3.80692   3.49237  -2.83855
H     2.08344   3.94009  -2.68654
H     3.25050   4.46169  -1.44173
H     4.11552   1.79192   3.90834
H     4.44345   0.06808   3.51540
H     5.58301   1.34964   2.96105
