31
Generated by autodE on: 2022-06-08. E = -875.546941 Ha
C    -1.03549  -1.90825   3.52289
N    -0.24911  -1.77371   2.31438
C    -0.51356  -0.81052   1.41419
O    -1.37514   0.06625   1.61157
C     0.23655  -0.85162   0.14024
N     0.12866   0.16528  -0.73118
C    -0.28010   1.42382  -0.63554
C    -0.33636   2.10264  -1.94809
C    -0.70522   3.55439  -2.01503
O    -0.06746   1.45336  -2.96205
C    -0.36180   2.12351   0.69212
C    -1.57315   2.94782   1.02192
O     0.61559   2.07626   1.42513
C     0.91888  -2.05043  -0.34993
O     1.11864  -3.06434   0.30923
O     1.33057  -1.92285  -1.62120
C     2.00355  -3.04458  -2.20892
H    -0.55536  -2.64456   4.17911
H    -2.06553  -2.24265   3.31093
H    -1.09644  -0.94573   4.05111
H     0.36145  -2.53160   2.01008
H     0.39478  -0.06433  -1.70624
H    -1.76480   3.68216  -1.74106
H    -0.10892   4.15141  -1.30852
H    -0.55158   3.91950  -3.03823
H    -2.45974   2.62456   0.46157
H    -1.36712   4.00343   0.78192
H    -1.75703   2.88096   2.10293
H     1.34248  -3.92293  -2.22776
H     2.25884  -2.73952  -3.22999
H     2.91560  -3.28290  -1.64319
