61
Generated by autodE on: 2022-06-08. E = -1622.351887 Ha. Imaginary frequency = -298.6 cm-1
C    -4.62393   3.20049   0.23494
N    -3.63877   2.31082  -0.34668
C    -2.39154   2.20146   0.15464
O    -1.94855   2.96447   1.02894
C    -1.51575   1.15363  -0.40305
C    -1.69660  -0.14770  -0.72754
C    -2.85798  -1.03548  -0.65699
C    -2.97984  -2.11225  -1.55804
C    -4.08241  -2.96607  -1.50195
C    -5.07519  -2.77108  -0.53685
C    -4.95566  -1.71808   0.37741
C    -3.85871  -0.85943   0.32123
C    -0.26392  -0.65292  -1.04773
O     0.33015   0.52958  -1.59949
C     0.00944   1.38304  -0.49198
C     0.62474   0.59078   0.67367
C     0.47362  -0.73582   0.30557
C     2.64107  -1.41701  -0.33824
C     2.34428  -2.18297  -1.58167
C     2.51924  -1.51200  -2.92095
O     1.94330  -3.34131  -1.50076
C     3.17428  -2.30446   0.78119
C     2.23957  -3.16281   1.57644
O     4.38451  -2.35673   0.91597
N     3.09970  -0.15345  -0.51188
C     2.99832   0.93310   0.29069
C     3.07172   2.19251  -0.52209
O     3.09212   2.09841  -1.76365
N     3.06627   3.36614   0.11779
C     3.02945   4.61967  -0.60706
C     3.11516   0.94438   1.75168
O     3.11203   1.96483   2.43428
O     3.17708  -0.26874   2.29096
C     3.20449  -0.36673   3.72063
H    -5.46196   3.31622  -0.46389
H    -5.01337   2.81201   1.19206
H    -4.17911   4.18742   0.42355
H    -3.95341   1.60684  -1.00615
H    -2.21349  -2.27004  -2.31914
H    -4.16554  -3.78935  -2.21519
H    -5.93564  -3.44260  -0.49090
H    -5.71780  -1.57119   1.14621
H    -3.76126  -0.05895   1.05597
H    -0.19555  -1.50925  -1.72409
H     0.33620   2.41484  -0.64860
H     0.65506   0.98669   1.68663
H     0.34839  -1.57316   0.98540
H     2.21863  -2.21644  -3.70599
H     3.57358  -1.22737  -3.07277
H     1.91109  -0.59804  -2.99384
H     1.71395  -2.53903   2.31575
H     2.81386  -3.93638   2.10300
H     1.48463  -3.61816   0.92247
H     3.07121   0.19676  -1.48123
H     3.04448   3.33634   1.13697
H     2.12030   4.69673  -1.22523
H     3.03782   5.44581   0.11407
H     3.90024   4.72088  -1.27374
H     2.26239   0.00845   4.14541
H     3.32599  -1.43298   3.94218
H     4.04886   0.20576   4.12821
