28
Generated by autodE on: 2022-06-22. E = -575.422362 Ha
C    -1.23599   1.45669   0.85809
C    -1.62358   0.01210   0.84018
C    -2.40105  -0.48828   1.88777
N    -3.06404  -0.84254   2.79462
N    -1.26695  -0.83406  -0.20330
C    -2.16669  -1.97200  -0.47731
C    -0.25210  -0.62068  -1.05228
C    -0.28288  -1.30396  -2.39051
C     0.93515   0.15476  -0.67190
C     1.65206   0.90536  -1.63000
C     2.83593   1.56040  -1.29310
C     3.35071   1.47165   0.00493
C     2.65752   0.72638   0.96495
C     1.46184   0.08843   0.63803
H    -0.24650   1.66320   1.30819
H    -1.19866   1.85271  -0.17091
H    -1.98449   2.02750   1.42831
H    -2.76652  -2.17801   0.41386
H    -1.58512  -2.86406  -0.73310
H    -2.84014  -1.72101  -1.30815
H     0.49197  -0.89525  -3.04828
H    -1.25581  -1.19474  -2.89430
H    -0.08323  -2.38596  -2.29668
H     1.26735   0.99187  -2.64747
H     3.36090   2.14584  -2.05183
H     4.28078   1.98116   0.26685
H     3.04970   0.64201   1.98136
H     0.93777  -0.48975   1.40109
