28
Generated by autodE on: 2022-07-27. E = -575.422604 Ha
C    -2.45678  -2.77757  -0.82597
C    -1.98884  -1.35236  -0.69497
C    -2.89168  -0.30573  -0.86722
N    -3.66152   0.57810  -0.98923
N    -0.70242  -1.04779  -0.26017
C    -0.05665  -2.06421   0.59171
C    -0.04124   0.05923  -0.63202
C    -0.47494   0.80587  -1.84725
C     1.06728   0.58413   0.18220
C     0.97428   0.63944   1.58980
C     2.01430   1.16599   2.35568
C     3.16992   1.65413   1.73722
C     3.27193   1.61655   0.34197
C     2.23214   1.09592  -0.42754
H    -2.56411  -3.29767   0.14297
H    -1.78087  -3.38390  -1.45363
H    -3.44482  -2.78566  -1.30784
H    -0.57188  -2.14113   1.55816
H     0.99680  -1.81772   0.74056
H    -0.11603  -3.03201   0.07926
H     0.37032   1.36904  -2.26410
H    -0.86977   0.10573  -2.60290
H    -1.28258   1.53400  -1.64862
H     0.06919   0.28460   2.08574
H     1.91636   1.20446   3.44324
H     3.98366   2.06687   2.33787
H     4.17084   1.99348  -0.15163
H     2.33349   1.06432  -1.51392
