20
Generated by autodE on: 2022-06-22. E = -457.715334 Ha
C    -3.02493  -0.68619  -0.69055
N    -1.79227   0.01708  -0.37560
C    -1.84115   1.37389  -0.03195
C    -0.75552   2.06400   0.35153
C     0.61888   1.44961   0.45201
C     0.56828  -0.02682   0.09373
C     1.77737  -0.86506   0.13494
N     2.92398  -0.23977   0.50313
O     1.78259  -2.08130  -0.14500
C    -0.59592  -0.62832  -0.28137
H    -2.78601  -1.69694  -1.04418
H    -3.68056  -0.76820   0.19296
H    -3.57842  -0.16011  -1.48366
H    -2.83043   1.82979  -0.10260
H    -0.87251   3.12169   0.59845
H     1.32779   1.99308  -0.20634
H     1.02571   1.59501   1.47362
H     2.96076   0.74237   0.74441
H     3.77878  -0.78329   0.55152
H    -0.60462  -1.69002  -0.53258
