57
Generated by autodE on: 2022-06-09. E = -1859.083108 Ha
C    -4.11796 -10.18404   8.97598
N    -4.16578  -8.75796   8.69178
C    -4.61711  -8.16826   7.58106
O    -4.56509  -6.94598   7.40107
C    -5.13493  -9.09916   6.45984
N    -3.97555  -9.46062   5.67946
C    -4.20211  -9.02045   4.48751
C    -3.14358  -9.26413   3.53670
N    -2.22820  -9.52085   2.87184
C    -5.53125  -8.36050   4.30529
C    -6.12958  -8.43385   5.54165
C    -7.50895  -8.04044   6.09108
C    -7.79844  -6.51900   5.89912
O    -8.94118  -6.10310   5.68108
N    -6.75087  -5.70241   6.05102
C    -6.88906  -4.26485   5.95388
C    -7.60416  -8.29687   7.62945
C    -7.66646  -9.61275   8.12420
C    -7.76032  -9.87612   9.49148
C    -7.80854  -8.82421  10.40946
C    -7.76238  -7.51222   9.93705
C    -7.66027  -7.25279   8.56696
C    -8.65246  -8.88232   5.42931
C    -8.53300  -9.31375   3.97355
C    -8.55792  -8.21700   2.91454
C    -7.42454  -7.18918   2.93507
C    -5.96223  -7.70480   2.98235
C    -5.75616  -8.67342   1.76869
F    -6.04718  -9.93731   2.11046
F    -4.49731  -8.67110   1.30117
F    -6.53505  -8.34671   0.72956
C    -5.06775  -6.44788   2.74061
F    -5.20378  -5.99506   1.48344
F    -3.76123  -6.68783   2.93581
F    -5.40057  -5.44828   3.56340
H    -5.12424 -10.62637   8.99775
H    -3.50364 -10.72196   8.24050
H    -3.66632 -10.31716   9.96615
H    -3.79592  -8.11781   9.39102
H    -5.55441 -10.01437   6.89861
H    -5.85339  -6.09761   6.35088
H    -5.89222  -3.80884   6.00193
H    -7.50488  -3.85944   6.77477
H    -7.36475  -3.98143   5.00252
H    -7.62945 -10.46071   7.43937
H    -7.79570 -10.91190   9.83629
H    -7.88435  -9.02600  11.48031
H    -7.80472  -6.67391  10.63626
H    -7.61752  -6.21302   8.24968
H    -9.57262  -8.30115   5.58128
H    -8.76381  -9.80110   6.01245
H    -7.64591  -9.95051   3.84612
H    -9.39308  -9.97518   3.77820
H    -9.49207  -7.64093   3.01614
H    -8.60148  -8.69337   1.92419
H    -7.51444  -6.57246   2.03137
H    -7.54939  -6.49399   3.76318
