43
Generated by autodE on: 2022-06-09. E = -1425.815817 Ha
C     1.99019   3.94611   1.10307
N     1.33540   2.65237   1.14724
C     2.02545   1.51458   1.31260
O     3.25244   1.48744   1.42408
C     1.17381   0.21443   1.42133
C     0.68098   0.10153   2.86719
C     1.60819   0.13633   3.92051
C     1.18042   0.01164   5.24393
C    -0.17887  -0.14890   5.53357
C    -1.10630  -0.18128   4.48911
C    -0.67859  -0.05536   3.16361
C     0.10722   0.23221   0.42328
C    -0.48825   0.04258  -0.61276
C    -0.75404  -0.52344  -1.93226
C    -1.92095  -1.53738  -1.83671
F    -2.22143  -2.06177  -3.03312
F    -3.03561  -0.97453  -1.34956
F    -1.60404  -2.55328  -1.02190
C    -1.11301   0.60419  -2.93067
F    -2.26587   1.21124  -2.61551
F    -1.22546   0.14391  -4.18352
F    -0.15736   1.54463  -2.93066
C     0.56193  -1.23102  -2.41039
C     1.38646  -1.98322  -1.34637
C     2.37846  -1.17080  -0.46590
C     2.04556  -1.02315   1.03316
H     2.74022   3.98136   0.29784
H     1.23499   4.71939   0.91841
H     2.50117   4.16777   2.05378
H     0.32454   2.60726   1.06779
H     2.66961   0.27079   3.70486
H     1.91365   0.04203   6.05342
H    -0.51278  -0.24625   6.56922
H    -2.17069  -0.30427   4.70328
H    -1.40934  -0.08175   2.35257
H     0.28511  -1.92005  -3.22133
H     1.19683  -0.45447  -2.85988
H     1.97858  -2.71317  -1.91908
H     0.72449  -2.58410  -0.70681
H     2.55813  -0.17755  -0.90984
H     3.34908  -1.68787  -0.51207
H     2.97528  -0.94458   1.61255
H     1.51595  -1.92084   1.38653
