14
Generated by autodE on: 2022-06-09. E = -433.140372 Ha
C    -3.68606   0.66278   0.33918
N    -2.34181   0.75413   0.86998
C    -1.27579   0.15658   0.30136
O    -1.31372  -0.53578  -0.72012
C     0.00445   0.39744   1.02818
N     1.07242  -0.11585   0.55864
C     1.98634  -0.76386   0.07863
C     2.95020  -0.44982  -0.87736
N     3.81322  -0.33130  -1.65757
H    -4.37241   0.22755   1.08217
H    -3.67342   0.02210  -0.55001
H    -4.06682   1.65683   0.05599
H    -2.19273   1.30265   1.71189
H     0.05724   0.99251   1.94543
