36
Generated by autodE on: 2022-06-17. E = -725.758950 Ha
C    -2.65727   1.13211  -0.83449
C    -1.70708   0.32578   0.03752
N    -1.73560  -1.11908  -0.26796
C    -2.80923  -1.80791   0.42612
N    -0.44995  -1.69389   0.10133
C     0.08475  -2.46312  -1.01444
C     0.38571  -0.57046   0.59673
N     1.79600  -0.72223   0.39410
C     2.51866  -1.63636   1.25645
C     2.36721  -0.24779  -0.76991
C     1.72106   0.51159  -1.68094
C     0.26376   0.85085  -1.52662
C    -0.22127   0.70068  -0.06643
C     0.09869   1.92594   0.79836
N     1.23876   2.57705   0.51087
O    -0.63705   2.27984   1.72811
H    -2.43188   1.01563  -1.90432
H    -2.59224   2.19991  -0.57359
H    -3.69805   0.81382  -0.67077
H    -1.99590   0.48716   1.09165
H    -2.72795  -1.73207   1.53042
H    -2.81709  -2.87301   0.14977
H    -3.77619  -1.37951   0.12135
H     1.02921  -2.94147  -0.72152
H    -0.62734  -3.26930  -1.24665
H     0.25544  -1.88378  -1.93934
H     0.21574  -0.48793   1.68206
H     2.37181  -2.69847   0.98457
H     2.18582  -1.50571   2.29769
H     3.59548  -1.41865   1.21166
H     3.42418  -0.49945  -0.88971
H     2.26539   0.86292  -2.55923
H     0.06210   1.87697  -1.87273
H    -0.35099   0.19839  -2.16886
H     1.87380   2.23418  -0.20616
H     1.51363   3.36353   1.09108
