16
Generated by autodE on: 2022-06-17. E = -268.004811 Ha
C    -1.00209  -1.75268   1.08025
C     0.05252  -0.94498   0.39697
N    -0.16798   0.27897  -0.07118
C    -1.51377   0.85331   0.09376
N     0.67478   1.09131  -0.68768
C     1.97770   0.51789  -0.83836
H    -1.39058  -1.27076   1.99623
H    -0.57933  -2.72374   1.37424
H    -1.87760  -1.95512   0.43644
H     1.05063  -1.35366   0.26707
H    -1.49971   1.85299  -0.34840
H    -1.76903   0.91475   1.15984
H    -2.25682   0.22504  -0.41486
H     1.98163  -0.42492  -1.43191
H     2.62312   1.24309  -1.35359
H     2.46215   0.25664   0.13036
