36
Generated by autodE on: 2022-06-17. E = -725.686830 Ha. Imaginary frequency = -398.5 cm-1
C    -1.63992   0.05407  -1.98139
C    -1.78565   0.10609  -0.48766
N    -1.69048  -0.95817   0.33888
C    -2.39471  -0.92224   1.62427
N    -0.62925  -1.79009   0.35871
C    -0.33049  -2.48610  -0.88545
C     0.88595  -0.26144   0.56908
N     1.99893  -0.78818  -0.07957
C     2.62468  -1.98019   0.45881
C     2.25978  -0.40262  -1.39186
C     1.71194   0.69314  -1.94721
C     0.83022   1.61515  -1.14921
C     0.25971   0.93052   0.09275
C    -0.34464   1.79394   1.12234
N    -0.70179   3.05008   0.73285
O    -0.52333   1.44051   2.30575
H    -2.46966  -0.53707  -2.40666
H    -0.69439  -0.36594  -2.33565
H    -1.73660   1.07144  -2.38300
H    -2.54761   0.81805  -0.15662
H    -1.67356  -0.86241   2.44853
H    -2.98321  -1.84579   1.73481
H    -3.06885  -0.05928   1.67067
H     0.36393  -1.96763  -1.56771
H    -1.24884  -2.70926  -1.45114
H     0.13748  -3.45365  -0.63839
H     0.87710  -0.43720   1.64254
H     3.65635  -2.05844   0.08845
H     2.08706  -2.90649   0.18911
H     2.65953  -1.91460   1.55597
H     2.95651  -1.04628  -1.93354
H     1.97100   0.95693  -2.97445
H     1.41591   2.50608  -0.83693
H     0.03244   2.02483  -1.79058
H    -0.73250   3.31213  -0.24459
H    -1.23272   3.61152   1.38977
