25
Generated by autodE on: 2022-06-16. E = -589.577234 Ha
C     2.33743   0.35355   2.27530
N     1.46553  -0.29156   1.31792
C     1.73611  -0.40579   0.00913
O     2.76325   0.01960  -0.53278
C     0.68303  -1.16128  -0.81043
C     0.37962  -0.46230  -2.14496
C    -0.71812   0.53277  -1.75933
N    -1.28228  -0.04772  -0.52686
C    -2.03099   0.68677   0.33329
C    -2.34256   0.07904   1.67778
O    -2.44931   1.80056  -0.00678
N    -0.61231  -1.23526  -0.12375
H     2.73009  -0.36805   3.00981
H     1.80063   1.14447   2.82113
H     3.18245   0.80272   1.73928
H     0.57652  -0.68211   1.62106
H     1.06929  -2.18121  -0.95429
H     1.26466   0.02490  -2.57125
H     0.00251  -1.20226  -2.86478
H    -1.48904   0.64280  -2.53599
H    -0.31801   1.53344  -1.53388
H    -2.73526  -0.94298   1.58365
H    -1.42883   0.02713   2.29026
H    -3.07735   0.71650   2.18530
H    -1.12915  -2.03197  -0.50357
