19
Generated by autodE on: 2022-07-27. E = -510.888685 Ha
C     2.70573   1.71936   0.68408
N     1.65685   0.81898   0.25640
C     1.88192  -0.25788  -0.51698
O     2.98879  -0.60675  -0.95323
C     0.69992  -1.08785  -0.86831
N    -0.53055  -0.88366  -0.50378
N    -1.00187   0.10122   0.25816
C    -2.36188  -0.02121   0.41553
C    -2.99804   1.04998   1.25335
O    -3.02513  -0.93594  -0.09591
H     3.66082   1.38820   0.26029
H     2.78895   1.73161   1.78251
H     2.50147   2.74685   0.34419
H     0.68482   0.97574   0.54234
H     0.87972  -1.95985  -1.49703
H    -1.26105  -1.54917  -0.82719
H    -3.69781   1.62541   0.62564
H    -3.59095   0.57958   2.05303
H    -2.25602   1.73044   1.68912
