25
Generated by autodE on: 2022-06-16. E = -589.491783 Ha. Imaginary frequency = -385.7 cm-1
C     2.89791   0.90513   1.36018
N     1.70393   0.28960   0.81934
C     1.77318  -0.77945   0.00914
O     2.83863  -1.33689  -0.29438
C     0.49245  -1.32123  -0.54042
C     0.41560   0.04871  -2.27782
C    -0.36846   1.07830  -1.79162
N    -0.99631   0.25429   0.20264
C    -2.26552   0.57630   0.62818
C    -3.17544  -0.51609   1.14178
O    -2.62031   1.75591   0.59766
N    -0.71985  -1.03102  -0.04676
H     2.60416   1.70330   2.05308
H     3.52728   1.34117   0.56588
H     3.50836   0.16946   1.90594
H     0.78756   0.73100   0.91629
H     0.58850  -2.31747  -0.97381
H     1.49976   0.16619  -2.34378
H    -0.02256  -0.69492  -2.94840
H    -1.42534   1.15501  -2.05338
H     0.08231   1.97401  -1.36128
H    -3.46361  -1.19335   0.31946
H    -2.67668  -1.12316   1.91216
H    -4.08446  -0.05967   1.55222
H    -1.47679  -1.63405  -0.38688
