63
Generated by autodE on: 2022-10-23. E = -1491.284750 Ha
C     0.07381   2.94234   2.44629
N     0.76828   3.29522   3.66506
C     1.92983   2.73936   4.02922
O     2.44500   1.78958   3.43046
C     2.61760   3.44941   5.24061
C     3.48640   2.48842   6.06178
C     3.07854   1.16492   6.28697
C     3.79679   0.33204   7.14874
C     4.93302   0.81026   7.80804
C     5.34375   2.12946   7.59698
C     4.62591   2.95871   6.73133
C     3.39271   4.68122   4.72682
C     3.00277   5.77267   5.41054
C     2.01013   5.39884   6.48779
C     2.62972   5.43928   7.90205
O     2.01947   5.14623   8.90780
O     3.90444   5.82707   7.89825
C     4.59301   5.85616   9.15718
N     1.57462   4.08000   6.06960
C     0.78852   3.25814   6.96509
C     3.34970   7.25991   5.23575
C     2.74921   8.03982   6.34845
N     2.26758   8.68799   7.17981
C     4.78517   7.60242   5.34663
N     5.83898   8.05017   5.53550
C     2.70315   7.88814   3.94318
C     3.11900   7.38015   2.56268
C     2.62420   5.97415   2.16770
C     3.63926   4.83186   2.23427
C     4.38552   4.62393   3.57423
C     5.20173   3.32743   3.51272
O     5.26535   5.72444   3.84138
C     6.38618   5.94008   3.01237
H     0.50708   3.45714   1.57113
H     0.14129   1.85918   2.27498
H    -0.98314   3.22635   2.53172
H     0.46199   4.07939   4.23682
H     2.19182   0.77550   5.78657
H     3.46312  -0.69634   7.30697
H     5.49414   0.15871   8.48209
H     6.22982   2.51854   8.10423
H     4.95996   3.98373   6.57648
H     1.14304   6.08107   6.53351
H     4.07674   6.52612   9.85897
H     5.59892   6.23166   8.93881
H     4.64569   4.84238   9.57929
H     1.35735   2.82954   7.80941
H    -0.03017   3.86450   7.37928
H     0.34364   2.42681   6.39828
H     1.61777   7.75293   4.06988
H     2.90151   8.96891   4.00071
H     2.67034   8.10728   1.86718
H     4.20569   7.47427   2.42910
H     1.73711   5.72053   2.76931
H     2.27022   6.01215   1.12526
H     3.13605   3.88953   1.97348
H     4.41015   4.97497   1.46062
H     5.88577   3.25837   4.36833
H     4.55029   2.44836   3.50417
H     5.79507   3.31537   2.58723
H     6.84041   6.88069   3.35549
H     6.11742   6.05013   1.94842
H     7.13637   5.13758   3.10757
