34
Generated by autodE on: 2022-10-27. E = -840.577017 Ha
C    -1.93479  -3.13904  -2.55941
N    -1.16823  -2.01756  -2.05714
C    -1.71848  -1.08292  -1.24658
O    -2.93801  -1.05517  -1.00567
C    -0.76902  -0.08853  -0.66866
C     0.63570  -0.46471  -0.42458
C     0.96468  -1.69288   0.17565
C     2.29922  -2.07349   0.33719
C     3.32681  -1.23013  -0.09071
C     3.01005  -0.00186  -0.68704
C     1.68057   0.37967  -0.84948
N    -1.21432   1.15126  -0.40983
C    -2.38381   1.70336  -1.13242
C    -0.64117   2.01525   0.47219
C     0.03537   1.60291   1.66381
O     0.11082   0.45714   2.14242
O     0.58068   2.68460   2.30265
C     1.18469   2.42800   3.56870
H    -1.39802  -3.59316  -3.40200
H    -2.92025  -2.79904  -2.90608
H    -2.09270  -3.91100  -1.78597
H    -0.15869  -2.04237  -2.15328
H     0.16707  -2.34902   0.52911
H     2.53439  -3.03094   0.80785
H     4.37087  -1.52514   0.03686
H     3.80755   0.65873  -1.03548
H     1.44624   1.33884  -1.31538
H    -3.28883   1.57187  -0.52834
H    -2.20026   2.77414  -1.28257
H    -2.50104   1.21420  -2.10326
H    -0.83128   3.07331   0.31247
H     1.58203   3.38880   3.91930
H     2.00334   1.69765   3.47666
H     0.44771   2.04517   4.29216
