29
Generated by autodE on: 2022-10-23. E = -650.599414 Ha
C     1.02588  -2.16460  -2.74557
O    -0.22660  -1.56815  -2.45893
C    -0.69995  -1.69366  -1.11694
C    -0.96905  -3.15010  -0.73807
C     0.22592  -1.01374  -0.18923
C     0.71876  -0.16231   0.51717
C     0.75565   1.15247   1.17389
C     0.27015   1.02443   2.56644
N    -0.15015   0.93045   3.64205
C     2.11249   1.73597   1.20143
N     3.16900   2.21123   1.18968
C    -0.20812   2.10290   0.35985
C    -1.60823   1.52484   0.08953
C    -1.82572   0.67918  -1.19649
C    -1.99682  -0.84571  -1.05011
H     1.80801  -1.82998  -2.03982
H     1.30831  -1.84438  -3.75846
H     0.98106  -3.26687  -2.72468
H    -1.39686  -3.20483   0.27308
H    -0.04733  -3.74836  -0.75053
H    -1.68583  -3.58467  -1.45099
H     0.30907   2.32734  -0.58455
H    -0.27985   3.03893   0.93273
H    -1.95966   0.97016   0.97625
H    -2.26777   2.40278   0.01943
H    -1.02551   0.88566  -1.92575
H    -2.75063   1.04766  -1.66529
H    -2.51045  -1.07897  -0.10477
H    -2.63300  -1.22461  -1.86596
