63
Generated by autodE on: 2022-10-23. E = -1491.154923 Ha. Imaginary frequency = -144.6 cm-1
C     0.49564   1.80161   2.55203
N     0.96108   2.57948   3.68284
C     1.71520   2.01590   4.65129
O     1.99279   0.80995   4.61996
C     2.27926   2.90715   5.73071
C     3.56060   2.39962   6.31515
C     3.47544   1.24823   7.11891
C     4.61840   0.69265   7.69386
C     5.87029   1.27506   7.46925
C     5.96429   2.41355   6.66616
C     4.81920   2.97138   6.09004
C     3.22693   5.09224   4.35472
C     2.89063   5.95107   5.17696
C     1.92882   4.81842   7.18637
C     3.02685   4.86954   8.14440
O     3.68913   3.96890   8.63019
O     3.19344   6.15815   8.53716
C     4.20301   6.40498   9.51600
N     1.50970   3.79968   6.38232
C     0.08844   3.99376   5.99259
C     2.99791   7.37919   5.60116
C     1.94683   7.82381   6.53844
N     1.07947   8.23913   7.18477
C     4.32493   7.53218   6.23828
N     5.39830   7.66083   6.65633
C     2.92616   8.37722   4.37755
C     3.72333   7.94078   3.14763
C     2.95236   6.96645   2.22571
C     3.59953   5.61242   1.93503
C     4.04528   4.74582   3.14724
C     4.03597   3.27536   2.73279
O     5.36829   5.16339   3.59096
C     6.48912   4.70722   2.85571
H     1.33727   1.42310   1.94663
H    -0.09368   0.93628   2.88995
H    -0.13684   2.43895   1.92155
H     0.92166   3.59015   3.61665
H     2.50000   0.79545   7.30220
H     4.53092  -0.19684   8.32259
H     6.76699   0.84223   7.91939
H     6.93555   2.88042   6.48537
H     4.91596   3.86784   5.48300
H     1.14620   5.53471   7.41734
H     4.18782   7.48580   9.69955
H     5.19190   6.10397   9.14107
H     3.98570   5.86036  10.44699
H    -0.44786   4.36801   6.86956
H     0.02027   4.73663   5.18581
H    -0.35781   3.04802   5.68214
H     1.86225   8.48514   4.12106
H     3.27033   9.35020   4.75756
H     3.97063   8.85602   2.58901
H     4.68498   7.50856   3.46028
H     1.95195   6.78729   2.64962
H     2.77306   7.45365   1.25378
H     2.88847   5.02083   1.33799
H     4.49456   5.73871   1.30469
H     4.39451   2.61726   3.53336
H     3.01785   2.98023   2.46285
H     4.66489   3.13010   1.84368
H     7.35383   5.27360   3.23122
H     6.39391   4.90098   1.77322
H     6.68295   3.63239   3.00995
