15
Generated by autodE on: 2022-06-13. E = -454.267852 Ha
C    -2.82238  -0.76651  -0.62803
N    -1.53182  -0.84803  -0.57940
C    -0.58658   0.00412  -0.03671
C    -0.97921   1.19018   0.59861
N    -1.32883   2.17543   1.12442
C     0.78042  -0.42545  -0.18251
O     1.11173  -1.46864  -0.74324
O     1.66204   0.43631   0.35927
C     3.04632   0.08622   0.25772
H    -3.33010   0.09341  -0.18719
H    -3.37177  -1.57146  -1.11493
H    -1.08359  -1.67129  -1.00530
H     3.59920   0.89677   0.74722
H     3.24703  -0.86720   0.76865
H     3.35287   0.00507  -0.79570
