30
Generated by autodE on: 2022-06-13. E = -841.225425 Ha
F    -1.99877   2.29793  -0.61949
C    -0.82538   1.78327  -0.19257
F    -0.33137   2.67044   0.70952
F     0.01379   1.81926  -1.24934
C    -1.01564   0.42196   0.37907
C    -0.13724  -0.61163   0.43397
C     1.28216  -0.68563   0.06798
C     1.80682  -1.87936  -0.46682
C     3.15406  -1.97205  -0.82023
C     4.00897  -0.88240  -0.62783
C     3.50568   0.30108  -0.07630
C     2.15808   0.40022   0.26898
C    -0.95589  -1.82806   0.86045
C    -1.87061  -2.18424  -0.35785
C    -2.86921  -0.99352  -0.40568
C    -2.38855  -0.09820   0.78176
C    -1.97818  -1.17150   1.80739
H     1.14959  -2.73677  -0.62156
H     3.53886  -2.90234  -1.24472
H     5.06499  -0.95747  -0.89758
H     4.17025   1.15146   0.09401
H     1.78574   1.31918   0.72302
H    -0.36853  -2.66789   1.25005
H    -2.38809  -3.13573  -0.16633
H    -1.28862  -2.29692  -1.28308
H    -2.84634  -0.44551  -1.35790
H    -3.90310  -1.32711  -0.23151
H    -3.10903   0.66461   1.09975
H    -1.51745  -0.74814   2.71192
H    -2.80375  -1.84391   2.08643
