32
Generated by autodE on: 2022-06-16. E = -652.917372 Ha
C    -3.54756   0.19654   0.46304
C    -2.30402   0.48157  -0.37349
C    -1.66224  -0.73712  -1.00395
C    -2.44249  -1.83803  -1.51103
N    -3.10570  -2.70800  -1.90274
N    -0.38796  -0.74109  -1.10184
C     0.11345   0.54773  -0.56341
C     0.34040   1.46188  -1.78343
C     1.42046   0.35189   0.19120
C     2.11397   1.47125   0.68202
C     3.29980   1.32021   1.40301
C     3.81837   0.04343   1.64699
C     3.13543  -1.07568   1.16598
C     1.94533  -0.92159   0.44581
C    -1.06131   1.09212   0.33153
C    -0.95523   0.68373   1.79929
H    -3.91348   1.12029   0.93547
H    -4.35548  -0.19455  -0.17478
H    -3.35327  -0.54245   1.25382
H    -2.59747   1.13794  -1.21215
H     1.07302   1.00995  -2.46802
H    -0.59925   1.62054  -2.33350
H     0.71968   2.44180  -1.46371
H     1.71746   2.47438   0.51092
H     3.82126   2.20443   1.77783
H     4.74713  -0.07590   2.21004
H     3.52750  -2.07890   1.35122
H     1.41812  -1.80074   0.07564
H    -1.09147   2.18892   0.26535
H    -1.83369   1.02869   2.36367
H    -0.88358  -0.40939   1.91418
H    -0.06606   1.12755   2.26708
