20
Generated by autodE on: 2022-06-16. E = -495.526425 Ha
C    -1.02357  -2.41277   0.14327
C    -0.61017  -0.96962   0.23239
N    -1.47096  -0.10173   0.59968
C    -2.22005   0.74186   1.10618
C    -3.12739   1.55800   0.40198
N    -3.92404   2.30865  -0.01125
C     0.76234  -0.53428  -0.09422
C     1.13868   0.82091  -0.00231
C     2.44189   1.21373  -0.29910
C     3.39187   0.26548  -0.69788
C     3.02661  -1.07999  -0.79603
C     1.72310  -1.48089  -0.49743
H    -0.39357  -3.02803   0.80484
H    -2.07398  -2.53345   0.43604
H    -0.89391  -2.78649  -0.88440
H     0.40573   1.57070   0.30170
H     2.71864   2.26763  -0.22200
H     4.41239   0.57617  -0.93284
H     3.76088  -1.82639  -1.10732
H     1.45701  -2.53504  -0.57745
