52
Generated by autodE on: 2022-06-15. E = -6633.734160 Ha
C    -4.44934  -0.50155  18.92579
O    -4.92371  -0.28441  17.59118
C    -5.18673  -1.36922  16.86369
O    -4.95816  -2.50038  17.23526
C    -5.77420  -0.99456  15.50257
N    -5.21256  -1.81157  14.42599
N    -6.22695  -2.77497  14.08705
C    -5.82162  -4.12125  14.38257
C    -6.24903  -4.78215  15.53912
C    -5.82221  -6.08816  15.79008
C    -4.95310  -6.72932  14.90252
C    -4.51526  -6.05966  13.75370
C    -4.95539  -4.76224  13.48921
C    -7.47212  -2.28021  14.54388
C    -7.29144  -1.21399  15.38194
C    -8.24183  -0.35016  16.12883
Br   -7.60062   1.56268  16.13523
Br   -8.18926  -0.93993  18.09106
C    -9.71927  -0.29890  15.77154
C   -10.06847   0.25016  14.38352
C    -9.22807  -0.24439  13.21071
C    -9.31439  -1.72965  12.87986
C    -8.76845  -2.78936  13.90209
C    -9.83954  -3.19842  14.94122
O   -11.02648  -3.21752  14.70418
O    -9.29618  -3.58566  16.08353
C   -10.18266  -4.03485  17.12134
C    -8.63358  -4.09281  13.04432
F    -9.78132  -4.31333  12.37693
F    -7.66668  -4.02518  12.12446
F    -8.42713  -5.19203  13.78666
H    -5.18694  -1.07821  19.50294
H    -3.49228  -1.04263  18.91298
H    -4.31819   0.49313  19.36709
H    -5.52318   0.05589  15.32141
H    -5.12525  -1.20593  13.60901
H    -6.91914  -4.27674  16.23269
H    -6.16482  -6.60364  16.69053
H    -4.61710  -7.74917  15.10384
H    -3.83774  -6.55519  13.05438
H    -4.63732  -4.23591  12.58748
H   -10.21711   0.32244  16.52754
H   -10.13933  -1.29613  15.92386
H   -11.12925   0.01000  14.20506
H    -9.99623   1.34753  14.41591
H    -9.57677   0.28134  12.30742
H    -8.17809   0.05989  13.33724
H    -8.75228  -1.88514  11.94875
H   -10.35873  -2.00168  12.67911
H   -10.74065  -4.91870  16.78233
H    -9.54109  -4.28582  17.97239
H   -10.88371  -3.23370  17.39383
