29
Generated by autodE on: 2022-06-15. E = -6024.489983 Ha
C    -0.39275  -3.96739  -2.06444
O     0.06490  -2.69974  -1.55703
C     0.81336  -1.96736  -2.36534
O     1.14290  -2.28853  -3.48413
C     1.20521  -0.60872  -1.74468
C     2.73883  -0.47260  -1.81336
F     3.15214   0.61508  -1.14601
F     3.18531  -0.36573  -3.06908
F     3.33908  -1.53904  -1.25630
C     0.72906  -0.44937  -0.37587
C     0.00623  -0.07201   0.51956
C    -1.09524   0.62437   1.12073
Br   -0.41589   2.30155   1.96947
Br   -1.96286  -0.46828   2.53889
C    -2.12046   0.96159   0.02272
C    -1.54112   1.59711  -1.25803
C    -1.00600   0.65765  -2.37504
C     0.51893   0.53394  -2.56861
H    -0.99574  -4.40808  -1.26310
H    -1.00174  -3.81392  -2.96614
H     0.46611  -4.61115  -2.29982
H    -2.87890   1.62197   0.46758
H    -2.62527   0.01729  -0.23642
H    -0.77679   2.34558  -0.99212
H    -2.37307   2.17130  -1.69217
H    -1.38812   1.05141  -3.32831
H    -1.45594  -0.34424  -2.27302
H     0.74665   0.33649  -3.62533
H     1.01036   1.47958  -2.29517
