23
Generated by autodE on: 2022-06-15. E = -609.171718 Ha
C     5.08105   0.81995   0.36756
O     4.04431  -0.12883   0.09484
C     2.77919   0.32343   0.17368
O     2.49377   1.48443   0.46006
C     1.81547  -0.71092  -0.11722
N     0.53271  -0.36447  -0.06456
N    -0.47461  -1.13549  -0.28035
C    -1.74448  -0.56580  -0.19577
C    -2.82056  -1.46427  -0.35814
C    -4.13909  -1.01983  -0.29460
C    -4.41804   0.33319  -0.06967
C    -3.35790   1.23400   0.08746
C    -2.03442   0.79963   0.02450
H     4.99285   1.20983   1.39266
H     5.03923   1.65892  -0.34305
H     6.02674   0.27725   0.25233
H     2.08295  -1.73451  -0.37112
H     0.39507   0.63325   0.18145
H    -2.59097  -2.51731  -0.53229
H    -4.95564  -1.73466  -0.42148
H    -5.45088   0.68445  -0.01989
H    -3.56263   2.29368   0.25820
H    -1.24166   1.54158   0.14242
