23
Generated by autodE on: 2022-07-27. E = -609.156572 Ha
C     1.44030   2.58833   2.41155
O     1.16535   2.66455   1.01040
C     0.26231   1.77662   0.52932
O    -0.25713   0.91806   1.23160
C    -0.00950   2.03106  -0.86297
N    -0.76343   1.26474  -1.66709
N    -1.21926   0.05415  -1.66949
C    -0.65689  -0.95748  -0.89593
C    -1.50120  -2.05024  -0.60523
C    -1.00907  -3.18061   0.04304
C     0.34600  -3.26418   0.38511
C     1.19759  -2.19764   0.07516
C     0.70700  -1.04637  -0.53894
H     0.52661   2.76018   3.00074
H     1.85795   1.60519   2.67551
H     2.17434   3.37572   2.62091
H     0.25953   2.99623  -1.28794
H    -1.09065   1.78056  -2.49175
H    -2.54966  -1.98837  -0.90390
H    -1.68478  -4.00814   0.27249
H     0.73582  -4.15309   0.88596
H     2.25934  -2.25511   0.32754
H     1.39382  -0.23150  -0.76900
