52
Generated by autodE on: 2022-06-15. E = -6633.626719 Ha. Imaginary frequency = -228.3 cm-1
C    -3.90900  -0.63920  18.23815
O    -4.32161  -0.50391  16.87700
C    -4.74648  -1.62517  16.26176
O    -4.74494  -2.71071  16.80559
C    -5.16321  -1.25287  14.89718
N    -5.42762  -2.02039  13.82958
N    -6.02085  -3.17688  13.71999
C    -5.59847  -4.21489  14.58350
C    -6.49786  -4.97517  15.34379
C    -6.03491  -6.05657  16.09581
C    -4.68054  -6.40428  16.09651
C    -3.78513  -5.65529  15.32559
C    -4.23632  -4.57365  14.57100
C    -8.00052  -2.23685  14.48268
C    -7.62411  -1.40246  15.32498
C    -8.11554  -0.43635  16.29220
Br   -7.25743   1.35230  16.06901
Br   -7.67372  -1.08382  18.14512
C    -9.64100  -0.29588  16.21587
C   -10.21193   0.31555  14.92105
C    -9.57816  -0.01021  13.55957
C    -9.75408  -1.39250  12.92452
C    -9.17691  -2.64033  13.67388
C   -10.26179  -3.20995  14.63563
O   -11.43551  -2.92680  14.57170
O    -9.74303  -4.03413  15.53313
C   -10.63883  -4.60224  16.50437
C    -8.91029  -3.72563  12.60424
F   -10.07251  -4.05301  11.99959
F    -8.07595  -3.30506  11.64742
F    -8.40891  -4.85874  13.10965
H    -4.72475  -1.04407  18.85373
H    -3.03439  -1.30250  18.31429
H    -3.64755   0.37018  18.57707
H    -4.92337  -0.22738  14.62073
H    -5.54913  -1.45571  12.98414
H    -7.54874  -4.70220  15.37552
H    -6.74651  -6.62808  16.69729
H    -4.32631  -7.24984  16.69035
H    -2.72310  -5.91305  15.31056
H    -3.53619  -3.99203  13.96808
H    -9.98269   0.31112  17.06652
H   -10.03631  -1.30847  16.38537
H   -11.28348   0.05819  14.89926
H   -10.16221   1.41004  15.02789
H   -10.03058   0.68999  12.83843
H    -8.51019   0.25112  13.57614
H    -9.26316  -1.34639  11.94378
H   -10.81726  -1.59828  12.74455
H   -11.40771  -5.20646  16.00324
H   -10.01563  -5.23034  17.15028
H   -11.11452  -3.80215  17.08856
