38
Generated by autodE on: 2022-05-29. E = -954.396564 Ha
C    -1.37804   2.56477  -1.97373
C    -1.23034   1.51240  -0.88770
N    -1.75182   0.21746  -1.32011
C    -1.32769  -0.78425  -0.34626
C    -1.47331  -2.20451  -0.91301
C    -2.27506  -0.72166   0.80503
N    -3.15721  -0.69229   1.56022
C     0.16350  -0.32844   0.01047
C     0.47714  -0.64267   1.47362
F     0.40124  -1.97382   1.70227
F    -0.37074  -0.05513   2.34408
F     1.70057  -0.25270   1.87574
C     1.19646  -0.98037  -0.97915
C     2.66302  -0.59450  -0.67655
C     2.69448   0.92951  -0.98386
C     1.27572   1.20080  -1.53994
C     0.99048  -0.13287  -2.25330
C     0.21959   1.21854  -0.39016
C     0.55396   2.23204   0.70751
H    -2.44515   2.74938  -2.17590
H    -0.92948   3.51811  -1.65558
H    -0.90492   2.25016  -2.91512
H    -1.78912   1.87009   0.00061
H    -2.76642   0.22543  -1.42217
H    -0.92713  -2.29481  -1.85878
H    -2.53590  -2.40828  -1.11033
H    -1.10151  -2.95263  -0.19987
H     1.06098  -2.06232  -1.07651
H     3.29005  -1.14602  -1.39273
H     3.01885  -0.85736   0.32271
H     3.44367   1.16349  -1.75469
H     2.93912   1.53793  -0.10411
H     1.22321   2.10587  -2.15760
H     1.74461  -0.37238  -3.01811
H    -0.00866  -0.20112  -2.68832
H     1.52203   2.05251   1.18739
H     0.58268   3.23940   0.26277
H    -0.21299   2.23616   1.49308
