23
Generated by autodE on: 2022-05-29. E = -649.398831 Ha
C     0.33485   2.48367  -0.56885
C    -0.33820   1.27638  -0.01535
C     0.10636   0.02865   0.25184
C     1.44132  -0.57521   0.04066
F     1.87278  -1.23799   1.14226
F     2.40825   0.30737  -0.27580
F     1.42267  -1.50113  -0.95434
C    -1.09219  -0.83380   0.63313
C    -1.91983  -1.02828  -0.67650
C    -2.43034   0.41143  -0.97135
C    -1.84412   1.24073   0.21835
C    -1.94931   0.21694   1.36540
H     0.20537   3.33706   0.11854
H    -0.15323   2.77466  -1.51546
H     1.40466   2.33808  -0.75630
H    -0.85505  -1.76110   1.16961
H    -1.30073  -1.44158  -1.48454
H    -2.75486  -1.72270  -0.49949
H    -2.09019   0.79983  -1.94231
H    -3.52927   0.46058  -0.95727
H    -2.31174   2.22359   0.36093
H    -2.98029  -0.11840   1.55734
H    -1.49015   0.56968   2.30069
