38
Generated by autodE on: 2022-05-29. E = -954.333316 Ha. Imaginary frequency = -257.8 cm-1
C    -1.67130   2.57140  -1.95951
C    -1.62116   1.48833  -0.93681
N    -1.92490   0.23424  -1.29378
C    -1.88161  -0.86774  -0.48071
C    -1.81565  -2.23053  -1.11415
C    -2.47927  -0.75384   0.79428
N    -3.01090  -0.70125   1.83584
C     0.57579  -0.17328   0.10646
C     0.58268  -0.66149   1.50594
F    -0.21319   0.03749   2.33912
F     1.82724  -0.60320   2.08274
F     0.22061  -1.96503   1.61376
C     1.38659  -0.92549  -0.95002
C     2.88279  -0.50576  -0.76626
C     2.86398   1.00300  -1.15114
C     1.37427   1.24104  -1.56118
C     1.05839  -0.11295  -2.21709
C     0.56357   1.17666  -0.26188
C     0.58336   2.35376   0.67789
H    -1.36869   2.19837  -2.95058
H    -1.00070   3.39535  -1.67562
H    -2.68714   2.99688  -2.04962
H    -1.82572   1.74054   0.10453
H    -1.85129   0.02947  -2.29041
H    -1.40317  -2.95307  -0.39595
H    -1.15507  -2.21473  -1.99338
H    -2.80703  -2.60119  -1.43270
H     1.22271  -2.00977  -0.99163
H     3.51235  -1.08600  -1.45844
H     3.24777  -0.68701   0.25123
H     3.52815   1.20920  -2.00413
H     3.17252   1.65934  -0.32484
H     1.21241   2.14484  -2.16324
H     1.74013  -0.35097  -3.04756
H     0.03255  -0.21773  -2.57761
H    -0.12516   2.23952   1.50753
H     1.58801   2.47350   1.12070
H     0.34839   3.28946   0.14774
