42
Generated by autodE on: 2022-05-29. E = -1268.656748 Ha
C    -1.55122   2.37305   0.90124
N    -0.52767   1.36648   0.68332
C    -0.86417   0.30822  -0.26988
C    -2.03709  -0.54834   0.14712
C    -2.84395  -1.12590  -0.84484
C    -3.90145  -1.97475  -0.50639
C    -4.17776  -2.24839   0.83647
C    -3.38987  -1.66477   1.83395
C    -2.32725  -0.82427   1.49204
C     0.47877  -0.47433  -0.50593
C     0.51088  -0.97550  -1.94513
C     0.74978  -1.58755   0.55468
C     2.06916  -2.32406   0.23464
C     3.15686  -1.26367   0.57625
C     2.32919  -0.05976   1.07683
C     1.18230  -0.79138   1.80251
C     1.57941   0.59333  -0.10787
Cl    2.74708   1.03668  -1.43979
C     0.77808   1.86716   0.28948
C     0.65851   2.84561  -0.82428
N     0.42524   3.65150  -1.62716
H    -1.86525   2.88008  -0.03391
H    -2.43994   1.90934   1.35028
H    -1.17543   3.13742   1.59777
H    -1.13183   0.76296  -1.24596
H    -2.64125  -0.90250  -1.89507
H    -4.51623  -2.41661  -1.29436
H    -5.00749  -2.90667   1.10499
H    -3.60293  -1.86543   2.88684
H    -1.71922  -0.37490   2.27741
H    -0.25784  -1.75193  -2.08220
H     0.29795  -0.15776  -2.64822
H     1.48158  -1.40514  -2.21938
H    -0.10639  -2.26152   0.67880
H     2.15726  -3.20386   0.88916
H     2.13064  -2.68484  -0.79968
H     3.81330  -1.60886   1.38814
H     3.79393  -1.00836  -0.27912
H     2.90213   0.67408   1.65900
H     1.56176  -1.44307   2.60410
H     0.41650  -0.12579   2.20619
H     1.26685   2.40041   1.12083
