20
Generated by autodE on: 2022-05-29. E = -771.828690 Ha
C     2.24444  -0.78300   0.61508
C     0.88524  -0.17977   0.58911
C     0.22325   0.42590  -0.41301
Cl    0.78906   0.67205  -2.04512
C    -1.22215   0.65133  -0.01263
C    -1.87616  -0.76753   0.02286
C    -1.13480  -1.45647   1.20621
C    -0.15264  -0.34335   1.69909
C    -1.02199   0.91426   1.49413
H     2.78672  -0.59754  -0.32348
H     2.84264  -0.38553   1.45271
H     2.17879  -1.87517   0.76649
H    -1.76687   1.40122  -0.59916
H    -2.95610  -0.68427   0.21733
H    -1.74477  -1.29241  -0.93433
H    -1.83319  -1.73147   2.01112
H    -0.59604  -2.36661   0.90487
H     0.26430  -0.51440   2.70063
H    -1.96284   0.89189   2.06609
H    -0.48154   1.85019   1.69819
