22
Generated by autodE on: 2022-07-26. E = -496.757669 Ha
C     0.48533   1.59065   1.81675
N     0.77823   1.44919   0.37865
C     1.61730   2.42113  -0.12638
C     2.07125   2.38056  -1.43921
N     2.46116   2.34108  -2.54889
C     0.25644   0.46818  -0.34756
C    -0.52299  -0.68036   0.06606
C    -1.26812  -1.31904  -0.95859
C    -2.04505  -2.44346  -0.69768
C    -2.09616  -2.98092   0.59431
C    -1.34721  -2.38267   1.61257
C    -0.56784  -1.25362   1.36074
H     1.18467   0.98222   2.40472
H    -0.54472   1.28020   2.01788
H     0.60632   2.64328   2.09218
H     1.88650   3.24240   0.53191
H     0.44811   0.55427  -1.41925
H    -1.23130  -0.90824  -1.97050
H    -2.61407  -2.90631  -1.50747
H    -2.70391  -3.86431   0.80232
H    -1.35924  -2.80615   2.61977
H     0.02978  -0.84622   2.17252
