22
Generated by autodE on: 2022-05-29. E = -496.760432 Ha
C    -2.68637  -1.42784  -0.02824
N    -1.51204  -0.52951  -0.02270
C    -1.76131   0.78824  -0.31227
C    -3.03535   1.22979  -0.65980
N    -4.09258   1.64457  -0.96687
C    -0.34257  -1.08183   0.28310
C     0.98275  -0.50034   0.26917
C     1.98371  -1.22547   0.96550
C     3.30423  -0.79045   0.99578
C     3.67769   0.37582   0.31514
C     2.71187   1.09009  -0.39927
C     1.38108   0.66943  -0.42182
H    -3.42443  -1.06775   0.70007
H    -3.13646  -1.42558  -1.02957
H    -2.37017  -2.44321   0.22693
H    -0.97069   1.51634  -0.16801
H    -0.41110  -2.11886   0.60763
H     1.70159  -2.14167   1.49007
H     4.05028  -1.36456   1.55034
H     4.71405   0.72005   0.33760
H     2.99474   1.99031  -0.95010
H     0.66901   1.23752  -1.01641
