15
Generated by autodE on: 2022-05-29. E = -437.142789 Ha
C     3.10170   0.54962   0.49586
N     2.25844  -0.44796   1.07992
O     1.02548  -0.37601   0.63710
C     0.51737   0.45891  -0.22794
C    -0.89404   0.31730  -0.54509
O    -1.45983   1.05103  -1.34289
O    -1.50174  -0.68196   0.11286
C    -2.89545  -0.87023  -0.16283
H     2.74520   1.57811   0.71265
H     3.15375   0.45838  -0.60910
H     4.10571   0.42004   0.91588
H     1.11012   1.23618  -0.70415
H    -3.05329  -1.09692  -1.22766
H    -3.21336  -1.71857   0.45443
H    -3.46923   0.02914   0.10572
