16
Generated by autodE on: 2022-05-29. E = -1104.339469 Ha
F    -2.04306   0.96149   0.69527
C    -1.64568  -0.17604   0.10772
F    -2.45590  -0.38435  -0.95209
F    -1.89193  -1.18493   0.97497
C    -0.22002  -0.15884  -0.28833
C     0.77014   0.70443  -0.03297
Cl    0.79138   2.19063   0.81308
C     2.06038   0.02455  -0.56260
C     2.34194  -1.16391   0.38424
C     1.36163  -2.03583   0.13325
C     0.49941  -1.36134  -0.95745
O     1.51153  -0.65771  -1.69771
H     2.88788   0.69257  -0.82106
H     3.14644  -1.20073   1.11733
H     1.13733  -2.99291   0.60220
H    -0.12013  -2.00142  -1.59389
