31
Generated by autodE on: 2022-05-29. E = -1541.464778 Ha. Imaginary frequency = -248.2 cm-1
C    -5.18672  -0.70237  -0.69752
O    -3.78720  -0.50555  -0.95749
C    -3.14026   0.33284  -0.14405
O    -3.68607   1.01915   0.70260
C    -1.69996   0.46220  -0.45488
O    -0.87327  -0.44085  -0.92256
N    -0.69638  -1.71074  -0.56311
C    -1.85417  -2.36353  -0.00259
C    -0.00845  -0.86318   1.79803
C     1.50112  -0.54469   1.75667
O     1.53204   0.65789   2.55947
C     0.55606   1.36403   1.76928
C     1.24039   1.25293   0.39192
Cl    1.12992   2.44753  -0.83431
C     1.82614   0.05036   0.37245
C     2.56250  -0.64293  -0.71566
F     2.02936  -0.42074  -1.93024
F     2.58181  -1.97331  -0.51786
F     3.85206  -0.24336  -0.78596
C    -0.62092   0.35121   1.80105
H    -5.73218   0.24686  -0.79406
H    -5.53379  -1.41918  -1.45000
H    -5.33110  -1.10929   0.31396
H    -1.37274   1.47422  -0.69952
H    -2.60805  -2.57426  -0.78030
H    -1.49180  -3.31949   0.39894
H    -2.35886  -1.81014   0.80854
H    -0.41091  -1.84102   2.04059
H     2.18373  -1.31394   2.12989
H     0.35945   2.37591   2.13599
H    -1.63585   0.61705   2.08433
