50
Generated by autodE on: 2022-06-07. E = -6239.579945 Ha
C    -1.83986  -2.59915  -4.60406
N    -1.86128  -2.19290  -3.21473
C    -0.72940  -1.86245  -2.56105
O     0.38164  -1.89063  -3.09231
C    -0.92602  -1.53554  -1.11069
N    -1.67557  -2.36512  -0.39672
N    -1.64953  -1.90541   0.86306
C    -2.50063  -2.58664   1.82908
C    -0.86726  -0.78969   1.00201
C    -0.41406  -0.47455  -0.30130
C     0.26755   0.75857  -0.81854
Br    2.17358   0.33349  -1.32608
Br   -0.65518   1.34162  -2.52117
C     0.34696   2.01067   0.05095
C    -0.96250   2.68407   0.48812
C    -2.09496   1.81935   1.04338
C    -1.83934   1.05373   2.34320
C    -0.74455  -0.04964   2.32320
C    -0.92648  -0.95351   3.59179
C    -0.05857  -2.17771   3.75961
O    -1.66906  -0.59656   4.48666
C     0.69714   0.42362   2.62213
C     1.80340  -0.28032   2.12208
C     3.10363   0.09718   2.45854
C     3.32407   1.17634   3.31815
C     2.22866   1.86411   3.84834
C     0.92749   1.48460   3.51175
H    -1.20418  -3.48686  -4.75302
H    -1.44893  -1.79499  -5.24869
H    -2.86182  -2.83920  -4.92177
H    -2.74095  -2.16189  -2.71211
H    -3.31299  -3.05569   1.26303
H    -1.95407  -3.36591   2.37513
H    -2.94073  -1.87108   2.53085
H     0.93265   2.74923  -0.51282
H     0.95731   1.75767   0.92056
H    -1.36446   3.24524  -0.36964
H    -0.67861   3.43656   1.24338
H    -2.94658   2.49079   1.24130
H    -2.44872   1.12686   0.26365
H    -1.63706   1.75935   3.15874
H    -2.77644   0.54787   2.61804
H     0.81011  -1.89544   4.37458
H    -0.62626  -2.93729   4.31353
H     0.31618  -2.58825   2.81490
H     1.65210  -1.11919   1.44404
H     3.94825  -0.45241   2.03738
H     4.34189   1.47578   3.57847
H     2.38420   2.70227   4.53150
H     0.09167   2.03002   3.94834
