35
Generated by autodE on: 2022-06-07. E = -5843.193104 Ha
C     3.43988   0.75412   3.10460
C     2.83851   0.63619   1.73433
O     3.51597   0.49213   0.73338
C     1.29701   0.70828   1.63007
C     0.90665   2.17282   1.90204
C     0.27363   2.58155   3.08273
C    -0.02706   3.93195   3.29112
C     0.30553   4.88797   2.32836
C     0.94380   4.48688   1.15007
C     1.24090   3.13942   0.94026
C     0.83625   0.30583   0.30200
C     0.15477  -0.22267  -0.55092
C    -0.90209  -1.05528  -1.04774
Br   -1.80476  -0.23420  -2.62477
Br   -0.13145  -2.80829  -1.64090
C    -1.93118  -1.28780   0.07161
C    -1.34367  -1.69199   1.43964
C    -0.87802  -0.56534   2.40477
C     0.63853  -0.33413   2.59033
H     2.91180   1.49459   3.72100
H     4.50484   1.00700   3.02132
H     3.34732  -0.22128   3.61113
H     0.00859   1.85581   3.85126
H    -0.52647   4.23436   4.21459
H     0.06887   5.94143   2.49467
H     1.21134   5.22519   0.39059
H     1.74190   2.83128   0.01934
H    -2.49268  -0.34629   0.18209
H    -2.64325  -2.04880  -0.27906
H    -2.15223  -2.23969   1.94685
H    -0.53707  -2.42945   1.29512
H    -1.26444  -0.82413   3.40218
H    -1.37369   0.38216   2.13802
H     0.83879  -0.01907   3.62304
H     1.17103  -1.28826   2.45133
