15
Generated by autodE on: 2022-06-07. E = -396.224519 Ha
C     3.08886  -0.55049   1.11901
N     1.68711  -0.59106   1.54925
N     0.86385  -0.52012   0.64287
C    -0.00548  -0.57245  -0.18307
C    -0.74716   0.38589  -1.02092
O    -0.22126   0.85471  -2.03485
N    -2.01251   0.63711  -0.63500
C    -2.62450   0.16722   0.59420
H     3.37511   0.47056   0.81778
H     3.26829  -1.22889   0.26893
H     3.71624  -0.85312   1.96517
H    -2.51050   1.31943  -1.20205
H    -3.71485   0.14607   0.46829
H    -2.38321   0.81155   1.45556
H    -2.28616  -0.85461   0.82003
