50
Generated by autodE on: 2022-06-07. E = -6239.414148 Ha. Imaginary frequency = -234.0 cm-1
C    -0.36513  -2.38817  -4.72098
N    -0.75499  -2.16245  -3.34302
C     0.08226  -2.42784  -2.32772
O     1.17248  -2.98619  -2.44163
C    -0.40593  -1.97691  -0.99087
N    -0.58319  -2.59261   0.03884
N    -0.61698  -2.65524   1.27352
C    -1.92989  -2.98685   1.83637
C    -0.08671  -0.07125   1.19057
C    -0.21347   0.05865  -0.03530
C    -0.34535   1.04584  -1.09134
Br    1.10044   0.78270  -2.46205
Br   -2.11424   0.82305  -2.02864
C    -0.22924   2.48409  -0.57611
C    -1.33280   2.99816   0.36094
C    -1.64118   2.24019   1.66227
C    -0.42160   1.94756   2.55661
C     0.10478   0.46570   2.55031
C    -0.76129  -0.38872   3.53024
C    -0.08854  -1.48696   4.30144
O    -1.94871  -0.15035   3.64702
C     1.58388   0.43590   2.95190
C     2.55376  -0.21961   2.18311
C     3.89509  -0.22756   2.58096
C     4.28574   0.42121   3.75417
C     3.32375   1.07960   4.52835
C     1.98617   1.08711   4.12990
H     0.04984  -3.39853  -4.83889
H     0.39860  -1.66071  -5.04550
H    -1.24755  -2.28752  -5.36454
H    -1.53424  -1.54011  -3.14787
H    -2.68695  -2.24563   1.53108
H    -2.25264  -3.98173   1.49004
H    -1.84992  -3.00749   2.92663
H    -0.17671   3.15656  -1.44441
H     0.74969   2.53496  -0.07357
H    -2.26771   3.09877  -0.21276
H    -1.02658   4.02547   0.62196
H    -2.35021   2.86398   2.22891
H    -2.18414   1.31121   1.44295
H     0.41987   2.58663   2.25253
H    -0.64653   2.20947   3.59980
H     0.54996  -1.03677   5.07743
H    -0.84232  -2.12399   4.78115
H     0.57074  -2.07535   3.64894
H     2.26199  -0.72736   1.26258
H     4.63614  -0.74412   1.96619
H     5.33308   0.41599   4.06493
H     3.61596   1.59072   5.44883
H     1.24614   1.59728   4.74969
