32
Generated by autodE on: 2022-10-06. E = -1067.134461 Ha
C     2.32360   1.23370   1.50632
C     2.02861  -0.23215   1.62362
O     2.81680  -1.03218   2.10670
C     0.63183  -0.72616   1.24657
O    -0.31645   0.33600   1.35083
C    -1.23412   0.27401   0.27385
C    -1.80139   1.67336  -0.03857
C    -1.51302   2.77837   0.93324
O    -2.56322   1.79447  -0.98292
C    -2.45799  -0.60307   0.64627
C    -2.71313  -0.81874   2.10844
O    -3.17197  -1.05744  -0.22741
C    -0.46249  -0.33646  -0.90715
C     0.26916   0.71679  -1.77149
O     0.61824   0.33970  -2.91496
O     0.44537   1.86614  -1.28092
C     0.47986  -1.33471  -0.17677
C     1.79736  -1.61476  -0.93381
O     1.86350  -2.68840  -1.57948
O     2.69555  -0.73424  -0.85496
H     3.40512   1.40137   1.59678
H     1.93286   1.63998   0.56484
H     1.81007   1.75891   2.32985
H     0.39086  -1.50469   1.98938
H    -2.02976   2.55262   1.88197
H    -0.44095   2.84608   1.15207
H    -1.89201   3.72703   0.53090
H    -3.68113  -1.31705   2.24751
H    -1.91160  -1.44297   2.53564
H    -2.68812   0.14102   2.64713
H    -1.14362  -0.88546  -1.56661
H    -0.05631  -2.28785  -0.08223
