22
Generated by autodE on: 2022-10-06. E = -611.992280 Ha
C     3.99432  -0.38356  -0.26963
C     2.59534  -0.86028  -0.02027
O     2.30728  -2.01012   0.29121
C     1.53966   0.16364  -0.17806
O     0.34894  -0.25627   0.03360
C    -0.87447   0.27992   0.00954
C    -1.04162   1.68608  -0.32451
C    -2.42294   2.28098  -0.35281
O    -0.04733   2.37737  -0.58302
C    -1.90478  -0.70312   0.34694
C    -1.44028  -2.10662   0.66327
O    -3.09854  -0.40205   0.37246
H     4.70701  -1.20418  -0.11971
H     4.07714   0.00637  -1.29813
H     4.23133   0.45402   0.40753
H     1.71487   1.20261  -0.45196
H    -2.91547   2.17238   0.62469
H    -2.33560   3.34307  -0.61761
H    -3.05704   1.75902  -1.08471
H    -0.73872  -2.10474   1.51157
H    -2.31637  -2.72206   0.90292
H    -0.90013  -2.54053  -0.19238
