15
Generated by autodE on: 2022-06-21. E = -396.277780 Ha
C     2.85036  -0.60206  -0.56626
N     1.41184  -0.76164  -0.63137
C     0.58266   0.06893   0.04217
O     1.00744   0.99207   0.75682
C    -0.85555  -0.20239  -0.12798
C    -1.45529  -1.31009  -0.95203
N    -1.63927   0.61678   0.51724
N    -2.30994   1.33964   1.08473
H     3.20770  -0.63781   0.47482
H     3.32273  -1.41743  -1.12772
H     3.17521   0.35835  -0.99986
H     1.02720  -1.48109  -1.23236
H    -1.16574  -1.21612  -2.01192
H    -2.55180  -1.28433  -0.89722
H    -1.11857  -2.29640  -0.59217
