41
Generated by autodE on: 2022-06-21. E = -1085.713435 Ha. Imaginary frequency = -428.7 cm-1
C     3.66453  -1.75074   1.64606
N     3.15650  -0.71600   0.76425
C     2.14881   0.08616   1.14293
O     1.68982   0.11324   2.29025
C     1.53920   0.92816   0.04840
C     2.40315   1.43918  -1.07785
N     0.69801   1.89496   0.56975
N    -0.42008   2.19027   0.45716
C    -1.03983   0.64683  -1.02374
O    -1.06188   1.31826  -2.19995
C    -1.87860   2.48169  -2.36792
C    -2.24760   0.43405  -0.21934
O    -3.34100   0.90860  -0.52981
C    -2.10999  -0.35304   1.05372
C    -3.22933  -0.14372   2.02420
C    -1.07593  -1.21777   1.21664
C    -0.86375  -2.13066   2.38448
C    -0.07303  -1.35617   0.12646
O     0.66252  -2.33553   0.06049
C     0.06997  -0.25267  -0.87889
O     0.78498  -0.58846  -2.00973
C     0.09816  -1.44608  -2.92582
H     4.58766  -2.16099   1.21884
H     3.88421  -1.33129   2.63723
H     2.93239  -2.56603   1.76719
H     3.38793  -0.77398  -0.22224
H     2.81453   0.58601  -1.63082
H     1.80375   2.03545  -1.77796
H     3.23482   2.04703  -0.68959
H    -1.89551   3.08971  -1.45264
H    -1.41437   3.05785  -3.18004
H    -2.90570   2.21193  -2.64541
H    -3.07506  -0.67698   2.96831
H    -3.34337   0.93122   2.23916
H    -4.18348  -0.47462   1.58329
H    -1.62758  -2.01082   3.16032
H    -0.86455  -3.18011   2.04990
H     0.12624  -1.94052   2.82882
H    -0.82862  -0.97627  -3.29004
H     0.78030  -1.60685  -3.77125
H    -0.13774  -2.41652  -2.46158
