16
Generated by autodE on: 2022-10-21. E = -641.718216 Ha
C     4.06236  -0.53420  -0.48575
O     2.62907  -0.68158  -0.48636
C     1.93625   0.29451   0.07307
O     2.38049   1.29845   0.58972
C     0.48251   0.04006   0.00837
N    -0.42626   0.85482   0.49190
C    -1.68776   0.33866   0.26284
C    -2.88758   0.95022   0.64744
N    -3.90042   1.44003   0.95774
C    -1.52123  -0.90132  -0.42093
O    -2.24778  -1.76064  -0.85820
O    -0.08342  -1.01945  -0.54573
H     4.34678   0.36737  -1.04635
H     4.45386  -1.43202  -0.97554
H     4.43303  -0.46322   0.54629
H    -0.20547   1.73606   0.96216
