44
Generated by autodE on: 2022-10-21. E = -1518.838472 Ha. Imaginary frequency = -423.5 cm-1
C     4.44345  -0.74635  -1.87992
O     3.16989  -1.04045  -1.27145
C     2.88167  -0.40059  -0.15439
O     3.59579   0.36592   0.44844
C     1.47917  -0.69842   0.28756
N     0.78877  -1.80745  -0.14526
C    -0.30764  -1.87780   0.65615
C    -1.38723  -2.77675   0.49470
N    -2.30554  -3.47755   0.36853
C     0.06361  -1.24155   1.93350
O    -0.43256  -1.24953   3.02324
O     1.24210  -0.57221   1.63487
C    -0.97733   0.26005  -0.31244
C    -1.97105   0.96256   0.57687
O    -2.34126   2.09751   0.36158
O    -2.43687   0.18958   1.54529
C    -3.41112   0.76249   2.43049
C    -1.59651  -0.53809  -1.40244
O    -0.98455  -1.18574  -2.23496
O    -2.92959  -0.50490  -1.33162
C    -3.65540  -1.29480  -2.28813
C     0.36337   0.75012  -0.48099
O     0.92651   0.76452  -1.73995
C     0.35071   1.68548  -2.67188
C     0.76810   1.89476   0.43126
O     0.30900   2.05014   1.54333
O     1.70765   2.65167  -0.11286
C     2.26193   3.68887   0.71491
H     4.48830  -1.36007  -2.78558
H     5.25895  -1.00956  -1.19270
H     4.49401   0.32207  -2.13202
H     0.75051  -2.04601  -1.14179
H    -2.99981   1.65990   2.91362
H    -3.62485  -0.01012   3.17722
H    -4.32252   1.02449   1.87441
H    -4.71506  -1.14690  -2.05252
H    -3.38510  -2.35483  -2.18802
H    -3.43799  -0.94984  -3.30880
H    -0.74334   1.57157  -2.72503
H     0.78987   1.45164  -3.64992
H     0.59183   2.72305  -2.39503
H     1.47484   4.38925   1.02642
H     2.73664   3.24287   1.60012
H     3.00768   4.19875   0.09555
