51
Generated by autodE on: 2022-06-01. E = -1130.472397 Ha
C     1.81911  -3.63890   0.14825
N     1.10033  -2.38760   0.01418
C     1.73428  -1.24302  -0.27838
O     2.97013  -1.21911  -0.38155
C     0.93864   0.02226  -0.63875
C     0.97394   0.03700  -2.23691
C     0.41247  -1.29758  -2.70707
C    -0.90535  -1.20980  -2.49791
C    -1.12214   0.18489  -1.92775
O    -0.08448   0.93053  -2.56337
C    -0.64198   0.18724  -0.41564
C    -1.45464  -0.78668   0.43078
C    -2.74648  -1.16384   0.02261
C    -3.54751  -1.98976   0.81643
C    -3.07785  -2.45610   2.04544
C    -1.80361  -2.07714   2.47626
C    -1.00951  -1.24852   1.68294
C    -0.78188   1.65597   0.18569
C    -1.96267   2.45408  -0.39982
C    -1.05370   1.62808   1.65933
N    -1.23314   1.79268   2.79537
N     0.49435   2.29117  -0.07310
C     0.70923   3.59691   0.52056
C     1.59465   1.30865  -0.00461
C     2.79217   1.84652  -0.80075
C     2.06117   1.04296   1.44297
H     2.26166  -3.95452  -0.81177
H     1.11938  -4.41247   0.48858
H     2.63330  -3.54608   0.88217
H     0.08850  -2.40934   0.02547
H     1.92782   0.35522  -2.66221
H     1.00231  -2.15123  -3.03933
H    -1.67336  -1.97072  -2.62567
H    -2.09848   0.63732  -2.10727
H    -3.15384  -0.80844  -0.92281
H    -4.54521  -2.26562   0.46731
H    -3.70071  -3.10504   2.66539
H    -1.42190  -2.42415   3.43909
H    -0.02364  -0.96629   2.04605
H    -2.88952   1.86814  -0.32489
H    -1.76192   2.70091  -1.44907
H    -2.11046   3.38951   0.15576
H     0.71224   3.59670   1.62908
H     1.66902   4.00595   0.17977
H    -0.07460   4.29323   0.19026
H     3.29972   2.64306  -0.23727
H     3.51834   1.04418  -0.97350
H     2.47764   2.26438  -1.76666
H     2.32577   1.99263   1.92963
H     2.95191   0.40341   1.45138
H     1.29067   0.55827   2.05543
