30
Generated by autodE on: 2022-06-01. E = -746.806785 Ha
C    -2.15979  -1.51284   0.22591
N    -2.05181  -1.16672  -1.17869
C    -1.37554  -0.14418  -1.74260
O    -1.43201   0.08042  -2.96308
C    -0.59141   0.76391  -0.87156
C     0.37906   0.56835   0.04500
C     1.02891  -0.63945   0.53831
C     1.52387  -0.68258   1.85684
C     2.10849  -1.84660   2.35881
C     2.22626  -2.98062   1.54921
C     1.75924  -2.94178   0.22971
C     1.16904  -1.78360  -0.27343
C     0.67668   2.00260   0.58467
C    -0.56410   2.45475   1.38075
C    -1.51118   2.64217   0.45567
C    -0.82694   2.29622  -0.88366
O     0.50934   2.76136  -0.62412
H    -1.95148  -0.63746   0.85208
H    -1.46461  -2.31907   0.50973
H    -3.18472  -1.85045   0.43605
H    -2.54234  -1.75930  -1.84520
H     1.43129   0.19554   2.49941
H     2.47569  -1.86731   3.38750
H     2.68866  -3.88944   1.94111
H     1.86277  -3.81889  -0.41334
H     0.82915  -1.75395  -1.31000
H     1.66059   2.15732   1.03905
H    -0.62332   2.52170   2.46648
H    -2.56189   2.90430   0.57449
H    -1.24994   2.71389  -1.80301
