40
Generated by autodE on: 2022-05-30. E = -1122.616791 Ha
C     3.74280   0.21137  -1.86023
O     2.48459  -0.29155  -1.37128
C     2.21764  -0.09317  -0.09235
O     2.96190   0.42454   0.70920
C     0.80614  -0.53716   0.22892
C     0.44392  -1.97898  -0.18934
O     0.95040  -2.71208  -0.99423
O    -0.61303  -2.32015   0.57668
N    -0.85458  -1.10808   1.49940
N     0.42574  -0.59230   1.65281
C     1.26343  -1.34166   2.58795
C    -1.49774  -0.04714   0.62985
C    -2.05401   0.87128   1.62531
N    -2.54247   1.54460   2.43243
C    -2.59631  -0.47585  -0.38895
C    -3.16978   0.83777  -0.97793
C    -2.01206   1.35541  -1.88768
C    -0.91682   0.26533  -1.72583
C    -1.81852  -0.97524  -1.62074
C    -0.31629   0.45833  -0.30644
C     0.31313   1.87182  -0.17316
C     0.31328   2.61948   1.12238
O     0.87048   2.31477  -1.16116
H     3.78284   1.30092  -1.72339
H     3.77191  -0.04466  -2.92456
H     4.57521  -0.26535  -1.32512
H     1.49382  -2.36250   2.23847
H     2.19777  -0.78852   2.72991
H     0.72862  -1.39925   3.54399
H    -3.33841  -1.14702   0.05866
H    -4.06396   0.59348  -1.56657
H    -3.47099   1.56511  -0.21305
H    -2.32321   1.39954  -2.94017
H    -1.67463   2.36022  -1.60608
H    -0.15276   0.26016  -2.50943
H    -1.33151  -1.94525  -1.53651
H    -2.48820  -1.03676  -2.49004
H     1.09383   3.39003   1.08550
H     0.45857   1.95238   1.98041
H    -0.66415   3.11265   1.24520
