17
Generated by autodE on: 2022-05-30. E = -604.764199 Ha
C     3.32249  -0.56600  -0.57455
O     2.04852   0.06665  -0.38270
C     1.01186  -0.74049  -0.13796
O     1.09290  -1.95501  -0.07288
C    -0.21541   0.02500   0.03814
C    -0.42832   1.43522  -0.01061
O     0.24280   2.42364  -0.19625
O    -1.82300   1.54380   0.23918
N    -2.38598   0.33330   0.41619
N    -1.43563  -0.52725   0.29487
C    -1.76671  -1.94517   0.44240
H     3.61141  -1.12909   0.32462
H     4.03459   0.24626  -0.75909
H     3.28824  -1.24625  -1.43778
H    -1.50318  -2.46723  -0.48420
H    -1.18961  -2.35720   1.27774
H    -2.84220  -2.00641   0.63850
