40
Generated by autodE on: 2022-05-30. E = -1122.588931 Ha. Imaginary frequency = -214.1 cm-1
C     4.09085   0.93494  -1.33932
O     2.90473   0.14083  -1.15755
C     2.46609   0.00434   0.08699
O     2.99811   0.47305   1.07148
C     1.19715  -0.75862   0.13114
C     0.70589  -1.67518  -0.90406
O     1.03978  -1.92232  -2.03126
O    -0.35378  -2.33030  -0.28857
N    -0.60436  -1.70416   0.95740
N     0.63020  -1.19778   1.28981
C     0.91601  -0.86883   2.68216
C    -1.50371  -0.30810   0.51145
C    -1.92494   0.15194   1.82613
N    -2.34195   0.45136   2.86698
C    -2.71026  -0.63019  -0.41753
C    -3.49965   0.70034  -0.55598
C    -2.55676   1.58323  -1.42688
C    -1.33213   0.63773  -1.68357
C    -2.07552  -0.70098  -1.81840
C    -0.64008   0.55743  -0.32584
C     0.08451   1.73619   0.20247
C     0.70396   2.66883  -0.80733
O     0.20013   1.94205   1.40775
H     3.92218   1.95457  -0.96587
H     4.27756   0.94669  -2.41845
H     4.93653   0.47817  -0.80678
H     0.71296   0.18419   2.90200
H     1.97000  -1.09522   2.88198
H     0.27891  -1.51530   3.29613
H    -3.29831  -1.48774  -0.06989
H    -4.44827   0.49746  -1.07148
H    -3.74112   1.15680   0.41352
H    -3.01834   1.84044  -2.39120
H    -2.27648   2.52135  -0.92940
H    -0.68927   0.94198  -2.51651
H    -1.45601  -1.57311  -2.02462
H    -2.85005  -0.64670  -2.59678
H    -0.08499   3.28220  -1.27233
H     1.20110   2.11259  -1.61426
H     1.41818   3.32976  -0.30012
