51
Generated by autodE on: 2022-06-29. E = -1543.623199 Ha
C     6.14356  -3.98543  -0.38098
O     4.70671  -3.95647  -0.31771
C     4.10541  -2.97286  -0.97568
O     4.68649  -2.10976  -1.59858
C     2.61070  -3.05068  -0.83360
N     2.11244  -3.23975   0.34340
C     0.67107  -3.20170   0.18083
C     0.06219  -1.87901   0.77902
C     0.94869  -0.67875   0.86169
O    -1.10111  -1.88794   1.11743
C     0.06706  -4.38521   0.94080
O    -0.50995  -5.32103   0.43750
O     0.28518  -4.25440   2.24450
C    -0.21288  -5.30083   3.09576
C     0.38973  -3.10012  -1.31049
C     1.60161  -2.90620  -1.90586
C     1.90287  -2.50155  -3.33789
C     3.24549  -3.12674  -3.79611
C     4.12522  -2.41809  -4.77954
O     3.50878  -4.24425  -3.38704
C     1.85995  -0.95666  -3.38549
F     2.03867  -0.47001  -4.62558
F     2.78138  -0.38003  -2.59722
F     0.66248  -0.50029  -2.96446
C     0.86686  -3.00967  -4.39271
C     0.47965  -4.49717  -4.30355
C    -1.00017  -4.70961  -3.97053
C    -1.38702  -4.51055  -2.50574
C    -1.00823  -3.15695  -1.85175
H     6.45125  -4.86229   0.19932
H     6.47181  -4.08114  -1.42572
H     6.56371  -3.06853   0.05581
H     0.34368   0.20211   1.11078
H     1.70333  -0.84802   1.64599
H     1.49012  -0.51739  -0.08193
H     0.25977  -6.25884   2.83682
H    -1.30383  -5.38648   2.99278
H     0.05307  -5.00771   4.11740
H     4.51672  -1.49472  -4.32656
H     3.56180  -2.13066  -5.67885
H     4.95939  -3.07736  -5.04956
H    -0.02997  -2.38323  -4.31287
H     1.28493  -2.78739  -5.38362
H     0.69537  -4.96930  -5.27353
H     1.10975  -5.02239  -3.56941
H    -1.28406  -5.73836  -4.24876
H    -1.60463  -4.04258  -4.61070
H    -2.48067  -4.61556  -2.42102
H    -0.95452  -5.31761  -1.89914
H    -1.68989  -2.99299  -1.00672
H    -1.18423  -2.32960  -2.55369
