28
Generated by autodE on: 2022-06-29. E = -802.061996 Ha
C    -2.94433  -0.33565  -0.51325
C    -1.72470   0.14830  -1.23588
O    -1.74183   0.51159  -2.39486
C    -0.38776   0.12220  -0.44614
C     0.49410   1.30221  -0.89727
F     1.59648   1.42055  -0.13291
F     0.91583   1.18683  -2.16308
F    -0.17390   2.46678  -0.79697
C    -0.55270   0.16150   1.00522
C    -0.38849  -0.17511   2.15834
C     0.08048  -0.95780   3.29417
C     1.27873  -1.80508   2.79650
C     1.07739  -2.51518   1.43962
C     1.43372  -1.73227   0.14264
C     0.28839  -1.25941  -0.77717
H    -2.73540  -1.26503   0.03691
H    -3.23055   0.42058   0.23663
H    -3.76667  -0.47939  -1.22548
H     0.37400  -0.33150   4.15135
H    -0.73367  -1.61526   3.64428
H     1.49490  -2.55762   3.57191
H     2.16860  -1.15659   2.73302
H     1.72246  -3.40752   1.45945
H     0.04535  -2.90192   1.37326
H     2.03660  -2.40522  -0.48699
H     2.09729  -0.88819   0.38402
H    -0.51264  -2.01478  -0.76559
H     0.64155  -1.19543  -1.81658
