23
Generated by autodE on: 2022-06-29. E = -741.435667 Ha
C     4.79874  -0.85341  -0.25283
O     3.36164  -0.96005  -0.16041
C     2.68234   0.17200  -0.21538
O     3.12088   1.29452  -0.33959
C     1.25841  -0.06979  -0.10371
N     0.09767  -0.12569  -0.00766
C    -1.21045  -0.31788   0.11137
C    -1.61982  -1.72082   0.26665
C    -3.08373  -2.03710   0.40948
O    -0.76527  -2.60812   0.27704
C    -2.07696   0.86022   0.07763
O    -3.29260   0.84449   0.17933
O    -1.36937   1.99431  -0.08109
C    -2.11785   3.21501  -0.12612
H     5.07966  -0.39469  -1.21085
H     5.18366  -0.24908   0.58013
H     5.17329  -1.88041  -0.19091
H    -3.50689  -1.52763   1.28799
H    -3.19814  -3.12414   0.51163
H    -3.64559  -1.67737  -0.46534
H    -2.82178   3.20808  -0.97118
H    -1.38025   4.01547  -0.25681
H    -2.67498   3.36388   0.81042
