51
Generated by autodE on: 2022-06-29. E = -1543.499502 Ha. Imaginary frequency = -291.0 cm-1
C     6.36064  -2.63226  -1.50746
O     4.99323  -2.90632  -1.14154
C     4.31468  -1.92153  -0.58622
O     4.72199  -0.81515  -0.31676
C     2.90196  -2.29707  -0.36465
N     2.18226  -2.47039   0.57863
C     0.97488  -2.82023   0.99152
C     0.08951  -1.76898   1.52679
C     0.67098  -0.37858   1.58781
O    -1.06815  -2.00267   1.86061
C     0.74411  -4.28566   0.97198
O     1.60294  -5.08227   0.63614
O    -0.49005  -4.63684   1.33001
C    -0.79177  -6.03943   1.27996
C     0.19071  -2.67405  -1.49296
C     1.28885  -2.61682  -2.05676
C     2.00611  -2.83766  -3.33411
C     3.07044  -3.96262  -3.17796
C     4.20377  -4.05452  -4.15668
O     2.91032  -4.78801  -2.30058
C     2.59371  -1.50786  -3.83853
F     3.05023  -1.58769  -5.09899
F     3.62594  -1.07987  -3.07995
F     1.67067  -0.53385  -3.81879
C     0.96327  -3.33048  -4.40136
C     0.11119  -4.55525  -4.01226
C    -1.34861  -4.30174  -3.56850
C    -1.65090  -4.20804  -2.06643
C    -1.25103  -2.89442  -1.36940
H     6.72677  -3.54714  -1.98435
H     6.39409  -1.78770  -2.20934
H     6.95120  -2.39992  -0.61069
H    -0.08073   0.30904   1.99481
H     1.57608  -0.36070   2.21479
H     0.96818  -0.04775   0.57956
H    -0.62238  -6.43401   0.26837
H    -1.85028  -6.12637   1.55005
H    -0.16754  -6.59078   1.99781
H     4.86276  -3.17833  -4.06511
H     3.82531  -4.07095  -5.18962
H     4.77768  -4.96643  -3.95039
H     0.30663  -2.47464  -4.61867
H     1.51974  -3.54410  -5.32468
H     0.06752  -5.19030  -4.90989
H     0.62909  -5.16031  -3.25179
H    -1.94978  -5.14255  -3.95061
H    -1.73763  -3.40272  -4.07923
H    -2.73680  -4.32999  -1.92010
H    -1.16926  -5.04998  -1.54186
H    -1.59021  -2.91059  -0.32383
H    -1.76658  -2.04524  -1.85152
