43
Generated by autodE on: 2022-06-12. E = -1493.221658 Ha
C    -1.99739   3.01369   1.76685
N    -1.95181   1.69014   1.17830
C    -1.60933   1.50544  -0.09943
O    -1.47239   2.43408  -0.90078
C    -1.31370   0.04485  -0.54290
C    -2.47696  -0.85630  -0.06038
C    -3.33592  -1.53054  -1.08646
O    -2.72936  -0.94827   1.13192
N    -1.20017   0.03868  -1.98896
C    -0.28347  -1.02123  -2.36754
C     0.72128  -1.23206  -1.21809
Cl    2.39882  -0.78754  -1.76294
C     0.74553  -2.69571  -0.67712
C     1.85568  -2.80842   0.35693
C     1.40454  -2.13689   1.42066
C     0.01489  -1.64565   1.04030
O    -0.43112  -2.68038   0.14152
C     0.13706  -0.44388   0.03720
C     0.92436   0.73014   0.58188
C     1.43368   1.73032  -0.26370
C     2.08267   2.85162   0.25661
C     2.23039   3.00478   1.63790
C     1.71141   2.02919   2.49286
C     1.06367   0.90780   1.96870
H    -2.74568   3.64738   1.26650
H    -2.26430   2.92083   2.82647
H    -1.01765   3.51237   1.68791
H    -2.04146   0.86537   1.76585
H    -3.78838  -0.77058  -1.74089
H    -4.11851  -2.10675  -0.57656
H    -2.73970  -2.19369  -1.72847
H    -0.83343   0.95146  -2.25990
H    -0.82795  -1.96540  -2.52506
H     0.21897  -0.77713  -3.31007
H     0.68611  -3.45862  -1.46138
H     2.82731  -3.27261   0.19610
H     1.91430  -1.91717   2.35713
H    -0.69721  -1.49876   1.85277
H     1.31479   1.64090  -1.34194
H     2.47142   3.61197  -0.42495
H     2.73887   3.88190   2.04505
H     1.80346   2.14054   3.57576
H     0.64098   0.18182   2.66334
