43
Generated by autodE on: 2022-06-12. E = -1493.162485 Ha. Imaginary frequency = -286.3 cm-1
C    -1.66286   3.71482   1.17734
N    -1.86255   2.33515   0.79814
C    -1.59047   1.87489  -0.43142
O    -1.19690   2.61101  -1.36328
C    -1.75902   0.42081  -0.66849
C    -2.41371  -0.47031   0.25449
C    -3.02564  -1.76428  -0.22988
O    -2.55210  -0.16635   1.46328
N    -1.35008   0.08544  -1.93553
C    -0.85928  -1.07351  -2.35851
C     0.98365  -1.27903  -1.14362
Cl    2.17346  -0.53145  -2.20136
C     1.05430  -2.82232  -1.01052
C     2.20679  -3.15172  -0.03519
C     1.77221  -2.74217   1.16194
C     0.36880  -2.15704   0.89146
O    -0.07820  -3.02433  -0.16454
C     0.64186  -0.83064   0.13281
C     0.92453   0.40194   0.84610
C     1.43703   1.55991   0.21272
C     1.72318   2.70689   0.94657
C     1.50528   2.74468   2.32943
C     0.98377   1.61765   2.96925
C     0.69578   0.46283   2.24130
H    -2.53615   4.34359   0.92947
H    -1.49268   3.77119   2.26027
H    -0.78728   4.13121   0.66077
H    -2.12547   1.62059   1.48135
H    -3.34790  -1.71591  -1.27984
H    -3.89014  -1.98226   0.41241
H    -2.30698  -2.59015  -0.12824
H    -1.06472   0.93396  -2.44229
H    -1.22400  -1.99819  -1.92465
H    -0.47626  -1.09166  -3.37961
H     0.98988  -3.39154  -1.94410
H     3.16676  -3.58008  -0.32032
H     2.28308  -2.72858   2.12386
H    -0.35062  -2.12569   1.71472
H     1.59057   1.56503  -0.86345
H     2.11512   3.58732   0.43181
H     1.73113   3.64891   2.89891
H     0.79785   1.63446   4.04575
H     0.28970  -0.40211   2.76530
