36
Generated by autodE on: 2022-07-01. E = -1081.608904 Ha
C     3.83794  -0.77803   0.81782
C     3.24198   0.19108  -0.22065
C     4.12274   1.44563  -0.32805
C     1.85686   0.51580   0.13636
C     0.64348   0.50661   0.15055
C    -0.69184   0.14028  -0.29027
Cl   -1.29826   1.54941  -1.39757
C    -1.72722  -0.04229   0.80199
C    -1.37051   0.07755   2.15054
C    -2.31801  -0.13490   3.15773
C    -3.63227  -0.46884   2.82518
C    -3.99630  -0.58673   1.47800
C    -3.05176  -0.37490   0.47403
C    -0.53516  -1.11483  -1.18532
C     0.60198  -1.08595  -2.22446
C     2.01800  -1.56205  -1.78898
C     3.12324  -0.49850  -1.61857
H     4.86742  -1.04204   0.52918
H     3.24841  -1.70406   0.88838
H     3.86631  -0.31336   1.81519
H     3.69155   2.17336  -1.03222
H     4.23302   1.93424   0.65231
H     5.12558   1.16802  -0.68888
H    -0.34328   0.33687   2.41419
H    -2.02387  -0.03662   4.20534
H    -4.37372  -0.63326   3.61056
H    -5.02390  -0.84202   1.20873
H    -3.34905  -0.44966  -0.57347
H    -0.38766  -1.96240  -0.49501
H    -1.49804  -1.28379  -1.68928
H     0.27349  -1.74573  -3.04239
H     0.65850  -0.07788  -2.66704
H     2.37669  -2.25427  -2.56675
H     1.94030  -2.17306  -0.87388
H     4.10481  -0.95668  -1.82631
H     2.97895   0.28824  -2.37774
