35
Generated by autodE on: 2022-07-27. E = -973.855903 Ha
C    -2.38210  -0.50697  -3.27026
O    -1.92452   0.07839  -2.04103
C    -1.05364  -0.63336  -1.33694
O    -0.68963  -1.75796  -1.61146
C    -0.67930   0.03965  -0.04817
N     0.56475  -0.01526   0.37164
C     1.75555  -0.27823  -0.29269
C     1.86978   0.04258  -1.69177
C     3.20065  -0.08318  -2.39208
O     0.88405   0.45952  -2.33052
C     2.87184  -0.63261   0.56643
O     4.02541  -0.84715   0.21858
O     2.49614  -0.71019   1.87076
C     3.52518  -0.99388   2.82239
C    -1.70796   0.59811   0.82744
C    -3.04580   0.15639   0.74034
C    -4.00944   0.65863   1.61133
C    -3.66301   1.61238   2.57519
C    -2.34287   2.06624   2.66239
C    -1.37216   1.56926   1.79494
H    -3.08007   0.21630  -3.70629
H    -1.53073  -0.67344  -3.94536
H    -2.89209  -1.46081  -3.07416
H     0.70193   0.19717   1.36565
H     3.55683  -1.12372  -2.36163
H     3.06910   0.23384  -3.43509
H     3.97265   0.53043  -1.90625
H     3.99291  -1.96628   2.60972
H     3.03310  -1.02004   3.80188
H     4.29714  -0.21010   2.80921
H    -3.32904  -0.59661   0.00405
H    -5.03860   0.30053   1.54007
H    -4.42360   2.00770   3.25209
H    -2.07008   2.82368   3.40017
H    -0.35482   1.96308   1.84807
