71
Generated by autodE on: 2022-07-01. E = -2055.444050 Ha. Imaginary frequency = -347.2 cm-1
C    18.56300  38.60468  -4.51461
O    17.52782  38.57700  -5.50208
C    17.90122  38.42153  -6.79073
O    19.07425  38.31574  -7.10680
C    16.73140  38.38288  -7.69106
C    16.88246  38.50981  -9.14442
C    18.23893  38.41955  -9.80090
O    15.89505  38.75731  -9.84387
N    15.56967  38.84206  -7.09381
C    14.31664  38.32248  -7.22813
C    13.75220  38.13521  -8.64896
O    13.62176  37.09582  -9.25087
O    13.29418  39.30926  -9.08932
C    12.72955  39.31807 -10.40676
C    13.29632  38.88619  -6.28349
C    11.92373  38.72089  -6.54209
C    10.96031  39.23107  -5.67265
C    11.34571  39.92873  -4.52617
C    12.70612  40.11338  -4.26157
C    13.66776  39.59924  -5.12772
C    14.82266  36.31718  -6.80254
C    15.90481  36.04578  -7.39314
C    16.80454  35.06460  -8.06125
C    16.66413  35.19698  -9.59263
C    18.27088  35.22657  -7.63875
C    16.35103  33.62583  -7.66421
C    14.85415  33.32112  -7.83065
C    14.12393  33.11906  -6.50227
C    14.29684  34.21715  -5.45356
C    13.90095  35.67255  -5.81056
Cl   12.20238  35.56933  -6.56466
C    13.86438  36.44788  -4.49051
C    12.70436  36.59138  -3.72133
C    12.75755  37.20866  -2.46893
C    13.97190  37.67892  -1.96171
C    15.13650  37.52466  -2.71899
C    15.08320  36.91203  -3.97236
H    19.11365  37.65302  -4.51260
H    18.05711  38.75169  -3.55332
H    19.26143  39.43159  -4.70756
H    18.78458  37.50870  -9.52956
H    18.08985  38.46183 -10.88785
H    18.86099  39.26967  -9.48060
H    15.75461  39.14961  -6.14201
H    13.48353  39.00268 -11.14179
H    11.86076  38.64591 -10.45755
H    12.42102  40.35257 -10.59653
H    11.59344  38.18013  -7.42692
H     9.90200  39.08185  -5.89738
H    10.59258  40.32869  -3.84361
H    13.02544  40.65514  -3.36928
H    14.71335  39.76300  -4.86627
H    16.97037  36.18289  -9.95449
H    17.30406  34.44311 -10.07687
H    15.62660  35.03106  -9.91457
H    18.86297  34.39140  -8.04416
H    18.70407  36.16137  -8.00573
H    18.36634  35.21404  -6.54206
H    16.66293  33.44094  -6.62432
H    16.95390  32.94406  -8.28419
H    14.72368  32.40942  -8.43477
H    14.36083  34.12562  -8.39696
H    14.48553  32.18729  -6.03352
H    13.05045  32.97045  -6.69411
H    15.34220  34.26930  -5.11184
H    13.70159  33.94314  -4.56941
H    11.75094  36.23511  -4.11027
H    11.83850  37.32773  -1.89029
H    14.00937  38.16570  -0.98442
H    16.09452  37.88802  -2.33912
H    15.99481  36.80812  -4.56005
