36
Generated by autodE on: 2022-06-17. E = -725.786177 Ha
C    -1.17243   2.82844  -1.63138
N    -1.42638   1.43305  -1.35186
N    -2.15183   1.27465  -0.11707
C    -2.11006  -0.18209   0.17177
C    -3.43462  -0.82798  -0.23523
C    -1.84453  -0.38840   1.66091
C    -0.93851  -0.72070  -0.74665
C    -0.24704   0.55921  -1.23614
C     0.85716   1.07181  -0.29227
C     1.67393  -0.05490   0.28738
C     2.99513   0.15950   0.88261
N     3.45148   1.44060   0.90612
O     3.69796  -0.76028   1.35679
C     1.16298  -1.32361   0.32566
N    -0.04154  -1.69509  -0.15789
C    -0.51138  -3.06466  -0.06527
H    -0.57713   2.91387  -2.55230
H    -2.12745   3.35390  -1.78267
H    -0.62659   3.35154  -0.81824
H    -1.60824   1.74209   0.62224
H    -4.25743  -0.45703   0.39579
H    -3.67060  -0.59162  -1.28399
H    -3.38371  -1.92347  -0.13438
H    -2.60620   0.14602   2.25075
H    -0.85404  -0.00934   1.95364
H    -1.89900  -1.45216   1.93168
H    -1.40181  -1.20230  -1.61964
H     0.18077   0.39949  -2.23678
H     1.49564   1.76680  -0.86023
H     0.40608   1.67053   0.52050
H     2.89587   2.22341   0.58727
H     4.34836   1.62542   1.34056
H     1.76020  -2.12460   0.76616
H     0.29977  -3.71117   0.29464
H    -1.36419  -3.15974   0.62723
H    -0.83826  -3.42682  -1.05424
