20
Generated by autodE on: 2022-06-17. E = -457.715313 Ha
C     3.06293   0.55806   0.64250
N     1.81967  -0.04552   0.19171
C     1.85804  -1.23496  -0.54672
C     0.75247  -1.82428  -1.02902
C    -0.63550  -1.27033  -0.82025
C    -0.57506   0.03078  -0.03662
C    -1.79527   0.78951   0.28048
N    -2.96216   0.24657  -0.14961
O    -1.79172   1.87255   0.90075
C     0.60925   0.54214   0.40373
H     2.83694   1.44862   1.24212
H     3.63734  -0.14675   1.26450
H     3.69353   0.85939  -0.21048
H     2.85685  -1.64693  -0.70194
H     0.86322  -2.75165  -1.59566
H    -1.13592  -1.11957  -1.79853
H    -1.26880  -2.01832  -0.29964
H    -3.00776  -0.64327  -0.62945
H    -3.82859   0.73015   0.05942
H     0.62279   1.47781   0.96485
