16
Generated by autodE on: 2022-06-17. E = -268.015545 Ha
C     2.44767  -0.61064   0.55349
N     1.27406   0.23077   0.55901
N     0.25140  -0.39668   0.00676
C    -0.92821   0.11381  -0.28373
C    -1.14936   1.56046  -0.01617
C    -2.00307  -0.77584  -0.81299
H     2.24265  -1.66012   0.85988
H     2.95733  -0.66867  -0.43411
H     3.18631  -0.20697   1.26262
H     0.35784  -1.40014  -0.20991
H    -1.11635   1.77992   1.06835
H    -2.12191   1.89003  -0.40723
H    -0.34735   2.17010  -0.47020
H    -1.63635  -1.80190  -0.97478
H    -2.86263  -0.82963  -0.11918
H    -2.39930  -0.39650  -1.77174
