51
Generated by autodE on: 2022-06-22. E = -1191.571746 Ha
C    -1.98210   0.04891  -2.65992
C    -1.71596  -0.93069  -1.78527
C    -1.79113  -2.38259  -2.16812
C    -1.24388  -0.71687  -0.35706
C     0.30527  -0.58749  -0.29877
C     0.91374  -1.26726   0.89832
C     2.10413  -1.89486   0.92792
C     2.61011  -2.52017   2.19959
C     3.03111  -2.02873  -0.24974
C     0.49207   0.96345  -0.30771
C     0.75680   1.52394  -1.73350
C     0.32236   2.93855  -1.96839
O     1.32205   0.84704  -2.56843
C     1.67035   1.36097   0.59306
O     1.55561   1.79629   1.71600
O     2.82860   1.14076  -0.01454
C     4.02206   1.32913   0.76375
O    -0.69243   1.53248   0.21961
C    -1.71049   0.55566   0.38742
C    -3.05635   1.13849  -0.10274
C    -4.26203   0.24718  -0.02262
O    -3.11995   2.29687  -0.46359
C    -1.91840   0.27886   1.90711
C    -1.58229   1.40173   2.83592
O    -2.36699  -0.78908   2.27637
H    -2.27617  -0.19014  -3.68603
H    -1.91989   1.10718  -2.40787
H    -2.54624  -2.90319  -1.55405
H    -2.04437  -2.51600  -3.22940
H    -0.82884  -2.88613  -1.97057
H    -1.55955  -1.58379   0.23559
H     0.75029  -0.97732  -1.21894
H     0.33581  -1.22577   1.82683
H     3.55952  -2.04907   2.50958
H     1.88884  -2.42396   3.02437
H     2.83077  -3.59151   2.04905
H     2.69893  -1.48179  -1.14034
H     4.03417  -1.65666   0.01891
H     3.15675  -3.09292  -0.51595
H     0.54370   3.23535  -3.00101
H    -0.74802   3.05029  -1.74647
H     0.85770   3.59663  -1.26262
H     4.00595   0.66645   1.64036
H     4.85601   1.07054   0.10249
H     4.10175   2.37528   1.09051
H    -4.73238   0.40520   0.96323
H    -4.01787  -0.81844  -0.11054
H    -4.98299   0.54589  -0.79504
H    -0.49203   1.55133   2.83510
H    -2.02635   2.34121   2.47046
H    -1.93782   1.16887   3.84747
