23
Generated by autodE on: 2022-06-22. E = -351.521380 Ha
C    -3.43656   0.68973  -1.41891
C    -2.47074   0.59687  -0.47850
C    -2.74244   0.95057   0.96140
C    -1.13068   0.14764  -0.85089
C    -0.07693   0.01679  -0.00633
C     1.23338  -0.43387  -0.42928
C     2.33614  -0.58521   0.34706
C     3.63148  -1.06654  -0.24318
C     2.38342  -0.29919   1.82127
H    -4.44754   1.02304  -1.16846
H    -3.23563   0.43285  -2.46358
H    -2.54892   0.09146   1.62506
H    -3.78478   1.26907   1.10346
H    -2.08199   1.76546   1.30173
H    -0.98555  -0.09942  -1.90953
H    -0.21394   0.26190   1.05037
H     1.32923  -0.67485  -1.49497
H     3.54875  -1.26572  -1.32172
H     3.97023  -1.99106   0.25814
H     4.43375  -0.32328  -0.08562
H     1.42996   0.05406   2.23446
H     3.15438   0.46147   2.03739
H     2.68427  -1.20513   2.37665
