28
Generated by autodE on: 2022-06-22. E = -839.964035 Ha
C     2.70727   2.60177  -1.77117
O     1.67413   1.78576  -1.19135
C     2.04594   0.59788  -0.73058
O     3.17430   0.14562  -0.78455
C     0.92222  -0.16575  -0.13191
O    -0.17233   0.49208  -0.00123
C    -1.40682   0.08781   0.35070
C    -2.30275   1.21302   0.62023
C    -1.70870   2.59864   0.53844
O    -3.48008   1.03229   0.92968
C    -1.76371  -1.29470   0.11109
C    -3.18942  -1.73896   0.26948
O    -0.89746  -2.08856  -0.29265
C     1.18333  -1.46611   0.59332
C     1.94169  -2.55431  -0.09591
O     0.88074  -1.48145   1.77480
H     2.21470   3.52868  -2.08424
H     3.48727   2.81248  -1.02582
H     3.15181   2.09038  -2.63677
H    -1.20646   2.75900  -0.42757
H    -0.94564   2.73129   1.32239
H    -2.50941   3.33573   0.67779
H    -3.26347  -2.78676  -0.04929
H    -3.49175  -1.64560   1.32390
H    -3.87441  -1.10810  -0.31398
H     3.01548  -2.40671   0.10226
H     1.63912  -3.52169   0.32778
H     1.78295  -2.53647  -1.18168
