47
Generated by autodE on: 2022-06-22. E = -1073.137344 Ha
C    -0.34371  -3.46129  -0.62870
O    -0.28033  -2.19815  -1.30747
C     0.56408  -1.28939  -0.81617
O     1.35310  -1.51886   0.07941
C     0.39414   0.05639  -1.51051
N     1.58055   0.88438  -1.48899
C     2.82770   0.31891  -1.96883
C     1.54567   1.76057  -0.32317
C     2.37985   2.95233  -0.56730
N     3.02392   3.89818  -0.75660
C     2.05507   1.09983   0.99174
O     1.36835   0.87938   1.96375
O     3.34618   0.80394   0.90268
C     3.92739   0.08574   2.00471
C     0.05189   2.13299  -0.22982
C    -0.74045   0.92454  -0.82259
C    -1.71682   1.40641  -1.89913
C    -1.42527   0.15506   0.28708
C    -2.65737  -0.38645   0.24948
C    -3.21122  -1.16853   1.34326
C    -4.42069  -1.77782   1.37762
C    -5.42400  -1.73599   0.25923
C    -4.85070  -2.56900   2.58124
H    -1.08691  -4.05876  -1.16882
H     0.63513  -3.96091  -0.64890
H    -0.66102  -3.31377   0.41410
H     0.11275  -0.16683  -2.55008
H     2.65910  -0.08576  -2.97881
H     3.58831   1.10949  -2.04781
H     3.23272  -0.48951  -1.33718
H     3.42207  -0.88276   2.12521
H     3.83763   0.67058   2.93073
H     4.98148  -0.06174   1.74515
H    -0.12327   3.02664  -0.84049
H    -0.23348   2.35978   0.80281
H    -2.46738   2.08579  -1.46732
H    -1.17086   1.94796  -2.68585
H    -2.24204   0.56328  -2.37040
H    -0.81756   0.00336   1.18440
H    -3.27577  -0.25704  -0.64216
H    -2.56383  -1.27435   2.22205
H    -5.65375  -2.75938  -0.08657
H    -5.09383  -1.14891  -0.60749
H    -6.37893  -1.31276   0.61764
H    -5.78710  -2.16211   3.00348
H    -5.07073  -3.61558   2.30382
H    -4.08554  -2.57251   3.37146
