24
Generated by autodE on: 2022-06-22. E = -721.566336 Ha
C     4.39811   1.59128  -0.60104
O     2.97719   1.45603  -0.48070
C     2.51316   0.22199  -0.21272
O     3.24158  -0.74638  -0.07604
C     1.05271   0.28673  -0.12724
N     0.25786  -0.73505   0.13644
C     0.85158  -2.07708   0.37098
C    -1.12100  -0.63364   0.20635
C    -1.88955  -1.78179   0.50162
N    -2.56148  -2.70638   0.74330
C    -1.83844   0.61792  -0.01290
O    -1.34628   1.70713  -0.27865
O    -3.16641   0.44014   0.11324
C    -3.99009   1.59579  -0.08042
H     4.58342   2.64982  -0.81682
H     4.77799   0.96398  -1.42093
H     4.89467   1.30216   0.33701
H     0.58061   1.24963  -0.29192
H     1.53888  -2.01580   1.22030
H     0.05784  -2.79515   0.58093
H     1.40523  -2.37866  -0.52370
H    -3.86082   1.99881  -1.09559
H    -3.74467   2.37542   0.65550
H    -5.02225   1.25481   0.06122
