47
Generated by autodE on: 2022-06-22. E = -1073.068586 Ha. Imaginary frequency = -387.4 cm-1
C    -0.93132  -3.08432  -0.06731
O    -0.40049  -2.12017  -0.98151
C     0.47579  -1.21424  -0.47961
O     0.71322  -1.14059   0.72313
C     1.01079  -0.42295  -1.55586
N     1.92036   0.58062  -1.48371
C     2.37606   1.11578  -2.77792
C     1.95641   1.45564  -0.41044
C     2.77621   2.62335  -0.57164
N     3.37643   3.61847  -0.63986
C     2.13543   0.94441   1.01922
O     1.57445   1.40987   1.98515
O     3.13327   0.06613   1.07141
C     3.41740  -0.49999   2.36035
C     0.04441   2.28312  -0.49567
C    -0.91770   1.30989  -0.83824
C    -1.44122   1.21215  -2.25392
C    -1.63755   0.66801   0.23465
C    -2.68276  -0.19501   0.09388
C    -3.33739  -0.82668   1.21481
C    -4.27678  -1.80736   1.16574
C    -4.79483  -2.41516  -0.10594
C    -4.85333  -2.38491   2.42646
H    -1.35179  -2.60412   0.82435
H    -0.14380  -3.79258   0.23490
H    -1.72129  -3.61548  -0.61170
H     0.83597  -0.81245  -2.55565
H     2.28410   0.33473  -3.53863
H     3.42676   1.42076  -2.70440
H     1.76116   1.98237  -3.06634
H     2.52863  -1.01903   2.74517
H     4.23616  -1.21118   2.20301
H     3.72349   0.28597   3.06524
H     0.30430   3.02371  -1.25645
H     0.07240   2.64406   0.53436
H    -1.67132   0.17820  -2.54669
H    -0.71797   1.61830  -2.97435
H    -2.37942   1.78973  -2.35220
H    -1.28127   0.88428   1.24745
H    -3.03238  -0.44066  -0.91161
H    -3.00987  -0.49076   2.20605
H    -5.89316  -2.31470  -0.16320
H    -4.36110  -1.97598  -1.01331
H    -4.58651  -3.49990  -0.11842
H    -5.95172  -2.26525   2.44661
H    -4.43549  -1.91410   3.32843
H    -4.66483  -3.47242   2.48078
