50
Generated by autodE on: 2022-06-15. E = -1079.901149 Ha
C     1.95637   2.14362   3.02442
C     2.82971   1.55697   1.95310
O     3.81894   2.12081   1.53173
C     2.40419   0.17465   1.39393
C     2.81317  -0.88426   2.44401
C     1.96601  -2.11492   2.55248
O     3.81501  -0.70092   3.11120
C     0.98710   0.16583   1.04602
C     0.00312   0.16854   0.33915
C    -0.82335   0.16169  -0.87098
C    -1.31933  -1.26119  -1.20297
C    -0.95944  -2.37729  -0.43779
C    -1.41186  -3.65647  -0.78319
C    -2.22946  -3.83701  -1.90019
C    -2.59493  -2.72628  -2.66998
C    -2.14569  -1.45165  -2.32222
C    -2.04239   1.08372  -0.70880
C    -2.46721   1.95733  -1.71790
C    -3.61140   2.74466  -1.54128
C    -4.34430   2.67124  -0.35495
C    -3.92583   1.80154   0.65869
C    -2.78615   1.01646   0.48004
C     0.16784   0.64859  -1.98430
C     1.54102  -0.05498  -2.01807
C     2.70521   0.56192  -1.19044
C     3.17659  -0.17401   0.08018
H     1.64551   1.37830   3.75146
H     2.47773   2.96825   3.52742
H     1.03835   2.53116   2.55230
H     2.46212  -2.86072   3.18649
H     0.99435  -1.83819   2.99348
H     1.75521  -2.52993   1.55524
H    -0.31912  -2.25042   0.43587
H    -1.11974  -4.51383  -0.17183
H    -2.58256  -4.83495  -2.17058
H    -3.23689  -2.85279  -3.54516
H    -2.44669  -0.59361  -2.92666
H    -1.91410   2.03132  -2.65411
H    -3.92743   3.42034  -2.33981
H    -5.23563   3.28811  -0.21840
H    -4.48914   1.73550   1.59271
H    -2.46561   0.33686   1.27365
H     0.31707   1.73207  -1.85635
H    -0.33087   0.50871  -2.95414
H     1.85902  -0.04582  -3.07193
H     1.42089  -1.12095  -1.76145
H     3.58674   0.59823  -1.84947
H     2.47970   1.61316  -0.94778
H     4.23353   0.05588   0.27400
H     3.10482  -1.26087  -0.08222
