22
Generated by autodE on: 2022-07-27. E = -496.767207 Ha
C     1.34606   2.06552   2.91966
C     0.95966   1.03956   1.89134
C    -0.01565   0.08013   2.15854
N    -0.82097  -0.73775   2.41338
N     1.66304   1.01015   0.71763
C     1.48870   0.42817  -0.46503
C     0.29069  -0.16391  -1.01716
C     0.44864  -1.07168  -2.09400
C    -0.65445  -1.62558  -2.73665
C    -1.95182  -1.27487  -2.34031
C    -2.12656  -0.35686  -1.29942
C    -1.02725   0.18798  -0.63624
H     0.84040   3.03598   2.76356
H     1.09295   1.71779   3.93146
H     2.43348   2.25452   2.88793
H     2.54324   1.52879   0.78580
H     2.38140   0.43989  -1.09200
H     1.45839  -1.33953  -2.41497
H    -0.50442  -2.33327  -3.55563
H    -2.81868  -1.70860  -2.84397
H    -3.13370  -0.06037  -0.99625
H    -1.19509   0.91998   0.15196
