72
Generated by autodE on: 2022-06-15. E = -1576.671042 Ha. Imaginary frequency = -286.2 cm-1
C    -7.46739   2.86802   2.89285
C    -6.09815   3.34044   3.28371
O    -5.09153   2.94012   2.72309
C    -5.98890   4.35989   4.43704
C    -4.54089   4.91144   4.44130
C    -4.13537   5.80194   3.29825
O    -3.77432   4.68428   5.36022
C    -6.99291   5.53546   4.23787
C    -6.94523   6.56874   5.38143
C    -8.20399   6.64338   6.25893
C    -8.75797   5.34628   6.86042
C    -7.79214   4.48347   7.75440
C    -8.62664   3.40771   8.48527
C    -9.54374   2.63405   7.75300
C   -10.31007   1.64367   8.37066
C   -10.17611   1.40171   9.74149
C    -9.25677   2.15148  10.47733
C    -8.48817   3.14050   9.85418
C    -7.07769   5.43451   8.72331
C    -7.83340   6.17091   9.65181
C    -7.22465   7.09434  10.50271
C    -5.84259   7.30789  10.43728
C    -5.08426   6.59196   9.50933
C    -5.69937   5.66606   8.65889
C    -6.82735   3.80500   6.84577
C    -6.28396   3.69317   5.73362
C    -5.00115   1.80773   5.73996
C    -5.95854   0.82755   5.18660
C    -5.49367   0.02156   4.12592
C    -6.33350  -0.89371   3.49129
C    -7.66599  -1.02169   3.89765
C    -8.14644  -0.21759   4.93594
C    -7.30833   0.70034   5.56825
N    -4.65417   1.98548   7.02896
C    -5.41435   1.96994   8.15907
C    -4.81135   2.55974   9.40977
C    -6.34152   0.92111   8.36750
N    -7.05674   0.03340   8.62587
H    -7.89050   3.59879   2.18245
H    -8.14426   2.81063   3.75459
H    -7.39347   1.89434   2.39156
H    -4.63820   5.54804   2.35711
H    -4.41747   6.83546   3.56314
H    -3.04435   5.76671   3.17760
H    -6.78996   6.01234   3.26818
H    -7.99910   5.10247   4.15973
H    -6.78362   7.57016   4.95236
H    -6.07005   6.38084   6.02062
H    -8.01289   7.36770   7.06669
H    -9.02218   7.07524   5.65628
H    -9.63278   5.60891   7.47618
H    -9.13231   4.70129   6.05371
H    -9.65984   2.79723   6.68100
H   -11.01427   1.05766   7.77489
H   -10.77665   0.62955  10.22814
H    -9.12875   1.96699  11.54688
H    -7.77555   3.70831  10.45120
H    -8.91270   6.01821   9.71179
H    -7.83245   7.65231  11.21927
H    -5.36433   8.03082  11.10246
H    -4.00544   6.75214   9.44065
H    -5.09908   5.12230   7.93031
H    -4.17228   2.03922   5.07088
H    -4.45781   0.12554   3.79528
H    -5.94651  -1.50724   2.67421
H    -8.32770  -1.73508   3.40075
H    -9.18995  -0.29224   5.25150
H    -7.72064   1.34986   6.33330
H    -3.85359   2.61163   7.11699
H    -5.59521   2.98614  10.04966
H    -4.26943   1.80082  10.00211
H    -4.11092   3.36578   9.15310
