27
Generated by autodE on: 2022-06-16. E = -611.640666 Ha
C     3.53864  -0.52805   0.74096
N     2.27195  -0.42092   0.04870
C     1.63114   0.73569  -0.17157
O     2.05179   1.85131   0.16212
C     0.28219   0.62384  -0.86835
O    -0.00665  -0.72555  -1.27463
C    -1.24221  -1.15104  -0.71212
C    -0.98773  -1.97317   0.49196
N    -0.76539  -2.61664   1.43163
C    -2.01822   0.14072  -0.39923
C    -3.16815   0.00359   0.58561
C    -0.87941   1.07581   0.04090
C    -1.19593   2.56027  -0.05783
H     3.42346  -1.05467   1.70193
H     3.92368   0.47998   0.93625
H     4.27159  -1.07739   0.13076
H     1.80673  -1.26310  -0.27814
H     0.32885   1.25185  -1.77397
H    -1.76297  -1.78900  -1.44198
H    -2.40197   0.49577  -1.36985
H    -3.91148  -0.72655   0.22945
H    -3.67883   0.97000   0.71028
H    -2.81183  -0.32124   1.57596
H    -0.62148   0.82720   1.08576
H    -0.32077   3.16189   0.22663
H    -2.02851   2.82908   0.61004
H    -1.47827   2.83041  -1.08837
