15
Generated by autodE on: 2022-07-27. E = -454.209222 Ha
C     2.42643   0.91570   2.00342
N     1.41284   1.41836   1.09996
C     0.71384   0.59168   0.28995
O     0.84624  -0.64365   0.30527
C    -0.16286   1.26500  -0.66354
O    -1.00838   0.64332  -1.42517
C    -1.54897  -0.55230  -1.50984
C    -1.52279  -1.55680  -0.53244
N    -1.65809  -2.45028   0.21282
H     2.71428   1.71425   2.69797
H     2.03813   0.06332   2.58026
H     3.32735   0.57611   1.46380
H     1.29682   2.42162   0.99544
H    -0.05037   2.31812  -0.92609
H    -2.22020  -0.65179  -2.36293
