15
Generated by autodE on: 2022-06-16. E = -454.215126 Ha
C    -3.26328  -1.26725  -1.40403
N    -2.54136  -0.56755  -0.36432
C    -1.19815  -0.39412  -0.37544
O    -0.45092  -0.82093  -1.27552
C    -0.68354   0.34740   0.76989
O     0.57538   0.61924   0.92557
C     1.64500   0.35285   0.20388
C     2.86031   0.82535   0.71695
N     3.89579   1.20303   1.11231
H    -2.54426  -1.65331  -2.13579
H    -3.96831  -0.59609  -1.92079
H    -3.83460  -2.11181  -0.98748
H    -3.06818  -0.17614   0.41075
H    -1.30989   0.73002   1.57620
H     1.55019  -0.20427  -0.72464
