27
Generated by autodE on: 2022-06-16. E = -611.516282 Ha. Imaginary frequency = -270.4 cm-1
C     3.11784   0.43525   1.77129
N     2.31924   0.87912   0.64715
C     1.44757   0.04770   0.03468
O     1.34462  -1.15049   0.33141
C     0.64399   0.67501  -1.02719
O    -0.19906   0.01266  -1.78069
C    -1.09312  -0.93566  -1.52449
C    -0.99117  -2.04258  -0.66863
N    -1.11687  -3.01201  -0.02097
C    -1.81203   0.59660   0.65639
C    -1.53047  -0.19748   1.89074
C    -1.07399   1.68022   0.26014
C    -1.55082   2.63143  -0.80388
H     2.48945   0.17965   2.64151
H     3.70468  -0.45708   1.50580
H     3.80700   1.23871   2.05815
H     2.30345   1.86630   0.41060
H     1.02801   1.56505  -1.52907
H    -1.84509  -1.00062  -2.31343
H    -2.75653   0.39553   0.14022
H    -0.56605   0.07995   2.34244
H    -1.52327  -1.28291   1.69340
H    -2.32317  -0.02665   2.64160
H    -0.28144   2.03433   0.92704
H    -0.72238   3.18351  -1.27112
H    -2.23573   3.38063  -0.36847
H    -2.10367   2.10062  -1.59470
