40
Generated by autodE on: 2022-06-18. E = -882.140897 Ha
C    -0.99785   3.76275   0.69309
N    -0.65026   2.42932   0.24756
C    -0.56184   1.36397   1.05874
O    -0.76657   1.40307   2.27491
C    -0.23116   0.02121   0.34183
C    -1.55728  -0.61230  -0.06436
C    -1.77988  -1.04939  -1.37587
C    -2.98458  -1.66968  -1.72366
C    -3.98205  -1.86060  -0.76440
C    -3.76582  -1.42685   0.54822
C    -2.56340  -0.80835   0.89561
N     0.61553   0.32323  -0.82866
C     1.84128   0.15056  -0.50167
C     2.93915   0.53560  -1.45548
C     2.59967   0.64310  -2.91245
O     4.05701   0.76152  -1.01763
C     2.07672  -0.32978   0.91748
C     3.24942  -1.28268   1.13680
C     0.66282  -0.86801   1.26547
C     0.50240  -2.36125   0.99267
H    -1.19486   3.73796   1.77113
H    -0.17692   4.47058   0.49822
H    -1.89919   4.12588   0.17510
H    -0.42858   2.27899  -0.73235
H    -1.00490  -0.90390  -2.12826
H    -3.14091  -2.00558  -2.75175
H    -4.92273  -2.34549  -1.03599
H    -4.53796  -1.57147   1.30776
H    -2.40177  -0.47381   1.92137
H     2.21943  -0.32400  -3.27912
H     3.49131   0.93780  -3.48034
H     1.79441   1.37849  -3.05995
H     2.25516   0.58480   1.51441
H     4.20440  -0.76384   0.98324
H     3.21491  -2.13925   0.44740
H     3.23388  -1.67238   2.16605
H     0.41417  -0.65991   2.31338
H     1.19093  -2.94517   1.61994
H    -0.51865  -2.69444   1.22440
H     0.70698  -2.61065  -0.06065
