28
Generated by autodE on: 2022-06-18. E = -724.754218 Ha
C    -1.04201  -3.94274   0.54237
N    -1.05341  -2.49565   0.45447
C     0.06847  -1.80226   0.18132
O     1.16099  -2.35727  -0.00247
C    -0.04438  -0.30768   0.14823
N     1.10115   0.28957   0.20950
C     2.21728   0.71576   0.34409
C     3.35609   1.07599  -0.48217
C     4.29867  -0.07054  -0.74051
O     3.54366   2.22871  -0.85239
C    -1.28385   0.49355   0.10671
C    -1.33123   1.73796   0.76639
C    -2.48244   2.52267   0.72132
C    -3.60989   2.08238   0.01865
C    -3.57085   0.85379  -0.64642
C    -2.41862   0.06578  -0.60986
H    -0.45681  -4.29265   1.40897
H    -2.07409  -4.29901   0.64604
H    -0.60082  -4.38440  -0.36376
H    -1.90831  -1.99795   0.67625
H     5.03130  -0.12226   0.08264
H     3.76014  -1.02891  -0.78147
H     4.83822   0.11696  -1.67982
H    -0.45841   2.08561   1.32328
H    -2.50199   3.48217   1.24328
H    -4.51251   2.69667  -0.01303
H    -4.43997   0.50720  -1.21024
H    -2.39609  -0.87456  -1.16158
