40
Generated by autodE on: 2022-06-18. E = -882.047320 Ha. Imaginary frequency = -371.3 cm-1
C    -0.38137   3.70080   1.76575
N    -0.28695   2.64644   0.77672
C    -0.99152   1.49812   0.91568
O    -1.84036   1.37219   1.81356
C    -0.68982   0.40569  -0.05106
C    -1.60099  -0.69813  -0.36797
C    -1.16745  -1.70529  -1.26082
C    -1.97753  -2.79840  -1.55963
C    -3.24307  -2.92153  -0.97463
C    -3.68481  -1.93321  -0.08988
C    -2.88007  -0.83373   0.21280
N     0.38388   0.57261  -0.82273
C     1.59902   0.50340  -0.79589
C     2.69817   1.00257  -1.62686
C     3.01810   0.21639  -2.86168
O     3.32858   1.97568  -1.22984
C     2.18773  -0.30701   1.14327
C     3.00997  -1.47165   0.64155
C     0.99729  -0.47527   1.82267
C     0.31060  -1.79452   2.00680
H     0.21141   4.55875   1.42533
H    -1.42515   4.02308   1.89864
H    -0.00098   3.37638   2.74933
H     0.43354   2.71598   0.06818
H    -0.18301  -1.62661  -1.72523
H    -1.61695  -3.56164  -2.25340
H    -3.87798  -3.77939  -1.20760
H    -4.67150  -2.01561   0.37255
H    -3.23074  -0.07612   0.90883
H     3.22580  -0.83096  -2.58864
H     3.88787   0.65628  -3.36780
H     2.14472   0.21025  -3.53414
H     2.73361   0.62580   1.32637
H     3.83038  -1.13631  -0.01038
H     3.46247  -2.02008   1.48713
H     2.40020  -2.19283   0.07606
H     0.63364   0.35676   2.42914
H     0.32742  -2.40401   1.08913
H     0.80038  -2.39480   2.79750
H    -0.74038  -1.65747   2.30116
