19
Generated by autodE on: 2022-05-28. E = -995.131160 Ha
C     3.30033  -0.12526  -1.94293
O     1.94737   0.19300  -1.59442
C     1.57002  -0.08099  -0.33289
O     2.31552  -0.57041   0.49709
C     0.17183   0.28002  -0.11295
C    -0.63926  -0.02071   0.91923
Cl   -0.34475  -0.90019   2.35077
C    -2.04395   0.48829   0.51883
C    -2.52817  -0.43020  -0.62686
C    -1.74036  -0.12371  -1.66111
C    -0.78205   0.96433  -1.12659
O    -1.65810   1.65762  -0.21523
H     4.00412   0.44020  -1.31460
H     3.48829  -1.20193  -1.81919
H     3.41768   0.16088  -2.99456
H    -2.73507   0.70322   1.33988
H    -3.30872  -1.18398  -0.53452
H    -1.69828  -0.55592  -2.66003
H    -0.31521   1.63788  -1.85085
