8
Generated by autodE on: 2022-05-28. E = -188.144530 Ha
C    -1.75241   0.08050   0.07804
C    -0.37576   0.67959   0.08349
N     0.68150  -0.05051  -0.03226
N     1.61458  -0.71107  -0.13618
H    -2.28805   0.30136   1.01738
H    -1.70513  -1.01221  -0.03711
H    -2.36039   0.48431  -0.74977
H    -0.19402   1.75228   0.18535
