27
Generated by autodE on: 2022-05-28. E = -1183.271958 Ha. Imaginary frequency = -342.6 cm-1
C     3.71540  -0.22372   1.11692
O     2.28600  -0.28705   1.15194
C     1.63900  -0.02237  -0.00609
O     2.23019   0.24949  -1.03875
C     0.19586  -0.08805   0.17999
C     0.04799   2.29427   0.38189
C    -0.19283   2.63372   1.81873
N    -0.96214   2.25173  -0.47331
N    -1.66290   1.63045  -1.15216
C    -0.76990  -0.37676  -0.78025
Cl   -0.48959  -0.84550  -2.43044
C    -1.93115  -1.02352   0.00617
C    -1.42866  -2.39653   0.49604
C    -0.51418  -2.11178   1.43028
C    -0.47001  -0.57355   1.49382
O    -1.84751  -0.25293   1.21295
H     4.12109  -0.95686   0.40427
H     4.05483  -0.45936   2.13259
H     4.05274   0.78347   0.83032
H     0.98516   2.61307  -0.08795
H    -0.18652   3.72422   1.98535
H     0.62734   2.20267   2.41163
H    -1.14832   2.22233   2.16972
H    -2.91987  -0.97073  -0.46151
H    -1.73369  -3.35955   0.08836
H     0.13555  -2.78028   1.99411
H    -0.12362  -0.11545   2.42369
