42
Generated by autodE on: 2022-06-18. E = -829.121588 Ha
C    -0.49336  -2.22733  -1.63476
C    -0.70964  -2.19987  -0.31132
C    -1.23411  -3.39226   0.43827
C    -0.45989  -0.95953   0.53331
C     0.82382  -0.17516   0.14159
C     1.68303   0.21149   1.31948
C     3.01590   0.06922   1.43707
C     3.72941   0.52678   2.68152
C     3.91245  -0.50985   0.37716
C     0.23689   1.05284  -0.52244
C     1.09241   2.00666  -1.30682
C     0.46101   3.26794  -1.81657
O     2.26306   1.72242  -1.51270
N    -1.02058   1.23299  -0.38595
C    -1.59565   0.14368   0.41064
C    -1.99527   0.69793   1.78442
C    -2.86195  -0.41751  -0.26521
C    -3.18942   0.01907  -1.66174
O    -3.58245  -1.18012   0.35771
H    -0.70542  -3.12634  -2.22112
H    -0.10231  -1.36450  -2.18091
H    -0.50338  -3.71548   1.20038
H    -2.15804  -3.13272   0.97969
H    -1.44222  -4.24076  -0.22981
H    -0.40260  -1.27222   1.58346
H     1.42067  -0.73469  -0.58861
H     1.13841   0.67017   2.15245
H     4.25767  -0.31511   3.16284
H     3.04037   0.97066   3.41516
H     4.50327   1.27488   2.43352
H     4.56258   0.27829  -0.04169
H     4.58340  -1.26840   0.81474
H     3.36623  -0.97086  -0.45585
H     0.08345   3.86434  -0.97092
H    -0.40746   3.02873  -2.44907
H     1.19755   3.84772  -2.38727
H    -2.47151  -0.09712   2.37377
H    -2.70459   1.53222   1.67629
H    -1.10655   1.05947   2.32046
H    -2.30698  -0.05185  -2.31280
H    -4.01541  -0.58633  -2.05742
H    -3.48640   1.08040  -1.64084
