23
Generated by autodE on: 2022-06-18. E = -351.521384 Ha
C    -3.56112   1.12346  -0.59533
C    -2.55656   0.38180  -0.07902
C    -2.83024  -0.75155   0.87638
C    -1.17188   0.67317  -0.44496
C    -0.07836   0.00584   0.00189
C     1.27539   0.33701  -0.39366
C     2.41705  -0.27812   0.00614
C     2.46682  -1.44125   0.95579
C     3.75602   0.18471  -0.49461
H    -4.60599   0.92735  -0.33907
H    -3.35896   1.94575  -1.28865
H    -2.32346  -0.58814   1.84203
H    -2.44900  -1.70708   0.47939
H    -3.90732  -0.86145   1.06587
H    -1.02622   1.50685  -1.14246
H    -0.21539  -0.82651   0.69749
H     1.37217   1.17763  -1.09148
H     3.07714  -1.18615   1.84022
H     1.47942  -1.76930   1.30519
H     2.96631  -2.30282   0.47850
H     4.28417  -0.63492  -1.01433
H     4.40758   0.48113   0.34711
H     3.67046   1.03648  -1.18523
