42
Generated by autodE on: 2022-06-18. E = -829.042921 Ha. Imaginary frequency = -420.8 cm-1
C    -0.49291  -2.16990  -2.01879
C    -0.75783  -2.33840  -0.70068
C    -1.75765  -3.37002  -0.23699
C    -0.13178  -1.54626   0.35241
C     1.00517  -0.74874   0.15260
C     1.80380  -0.28155   1.29406
C     3.07959   0.16563   1.26131
C     3.76843   0.62327   2.51640
C     3.91590   0.24799   0.01372
C     0.18513   1.09792  -0.42353
C     1.11570   2.03709  -1.07304
C     1.15069   1.96814  -2.56927
O     1.85458   2.72697  -0.38635
N    -0.95805   1.14900  -0.00741
C    -1.83775   0.42028   0.67947
C    -1.85829   0.53168   2.17415
C    -3.00569  -0.11656  -0.02679
C    -3.09122   0.09253  -1.51286
O    -3.87006  -0.74490   0.59600
H    -0.98261  -2.79235  -2.77215
H     0.20554  -1.41112  -2.38146
H    -1.28459  -4.09067   0.45167
H    -2.57953  -2.89299   0.31912
H    -2.18890  -3.92770  -1.08078
H    -0.44494  -1.75265   1.37805
H     1.53535  -0.87615  -0.79416
H     1.28957  -0.29727   2.26153
H     4.70554   0.06218   2.68079
H     3.13119   0.50681   3.40546
H     4.05683   1.68668   2.43325
H     4.30727   1.27034  -0.11801
H     4.79578  -0.41433   0.10001
H     3.37192  -0.02620  -0.89953
H     0.13181   2.03317  -2.98234
H     1.56214   0.98860  -2.86771
H     1.78601   2.77136  -2.96565
H    -2.31296  -0.37467   2.59571
H    -2.47070   1.39134   2.49943
H    -0.84352   0.65653   2.57491
H    -2.23763  -0.40892  -2.00250
H    -4.02909  -0.33441  -1.89088
H    -3.03491   1.16231  -1.76561
