37
Generated by autodE on: 2022-06-17. E = -784.760095 Ha
C    -5.08991  -2.12977  -0.64709
C    -4.26567  -1.35279   0.08448
C    -4.68811  -0.77423   1.40895
C    -2.91712  -1.05787  -0.41275
C    -1.99997  -0.29885   0.21503
C    -0.63301  -0.04248  -0.32327
C    -0.23492   1.45498  -0.37771
C    -0.75478   2.14638  -1.55674
N    -1.18282   2.66988  -2.49960
N     1.23457   1.49318  -0.31949
C     1.63712   0.36931   0.14133
C     3.10659   0.12836   0.38907
O     3.49438  -0.80490   1.10236
N     3.93379   0.99070  -0.21841
C     5.37056   0.92606  -0.04890
C     0.56255  -0.65327   0.48568
C     0.32372  -0.63305   2.00690
C     0.86531  -2.07424   0.00553
H    -4.77098  -2.54491  -1.60806
H    -6.10062  -2.37057  -0.30571
H    -4.63804   0.32729   1.39437
H    -4.01852  -1.10840   2.21894
H    -5.71530  -1.07053   1.66405
H    -2.65579  -1.50412  -1.37950
H    -2.23741   0.16494   1.17686
H    -0.56199  -0.44062  -1.34686
H    -0.62637   1.99226   0.50433
H     3.51372   1.75984  -0.73176
H     5.67254   1.21020   0.97303
H     5.84610   1.61095  -0.76117
H     5.73489  -0.09493  -0.23671
H    -0.47199  -1.34497   2.27310
H     1.24202  -0.92537   2.53459
H     0.02563   0.36584   2.36051
H    -0.04456  -2.68861   0.09704
H     1.65935  -2.53876   0.60459
H     1.17561  -2.07925  -1.05085
