23
Generated by autodE on: 2022-06-17. E = -351.521382 Ha
C     3.03121   1.56263  -1.63435
C     2.31697   0.92735  -0.67931
C     2.95403   0.49090   0.61519
C     0.89743   0.65161  -0.89147
C     0.07388   0.02478  -0.01411
C    -1.32933  -0.22363  -0.27515
C    -2.21793  -0.83876   0.54561
C    -1.88410  -1.38077   1.90648
C    -3.64930  -1.02384   0.12743
H     4.09438   1.78162  -1.50166
H     2.56564   1.87855  -2.57307
H     2.86548  -0.59943   0.75414
H     4.02000   0.75717   0.64410
H     2.45648   0.95926   1.48071
H     0.48205   0.98884  -1.84878
H     0.48146  -0.31404   0.94223
H    -1.69926   0.12894  -1.24559
H    -2.10151  -2.46269   1.95032
H    -0.83679  -1.23069   2.19831
H    -2.52510  -0.90956   2.67245
H    -4.33328  -0.53822   0.84656
H    -3.92083  -2.09488   0.12474
H    -3.84685  -0.61227  -0.87326
