14
Generated by autodE on: 2022-06-17. E = -433.140521 Ha
C    -2.52667   1.44267  -1.09686
N    -2.60766   0.28854  -0.21985
C    -1.57357  -0.49409   0.12209
O    -1.60861  -1.43887   0.91174
C    -0.30138  -0.22048  -0.57566
N     0.77236   0.24713  -0.34177
C     1.96526   0.73826  -0.17934
C     2.98154  -0.02656   0.43428
N     3.84055  -0.63692   0.93764
H    -1.73692   1.29006  -1.84738
H    -3.47958   1.56482  -1.62822
H    -2.30818   2.36989  -0.54335
H    -3.47433   0.11032   0.28355
H     2.17100   1.75479  -0.52524
