37
Generated by autodE on: 2022-06-17. E = -784.654558 Ha. Imaginary frequency = -393.0 cm-1
C    -5.42884  -1.17989   0.32916
C    -4.21859  -0.93320   0.88074
C    -4.09604  -0.38745   2.28109
C    -3.00129  -1.19284   0.12055
C    -1.73236  -0.98181   0.56193
C    -0.54610  -1.25599  -0.21140
C    -0.50671   0.99023  -1.63822
C    -0.38910   0.48298  -2.94832
N    -0.31620   0.01865  -4.01925
N     0.58104   1.28763  -0.94098
C     1.36807   0.85644  -0.12608
C     2.50154   1.43054   0.63640
O     2.25878   2.02408   1.69012
N     3.72591   1.19448   0.14603
C     4.92076   1.65018   0.83488
C     0.75557  -1.22726   0.29501
C     1.01857  -1.17195   1.78742
C     1.83949  -1.89292  -0.52691
H    -5.51696  -1.57615  -0.68719
H    -6.35586  -0.99202   0.87790
H    -3.56043   0.57639   2.28663
H    -3.51818  -1.07119   2.92491
H    -5.08425  -0.23589   2.73777
H    -3.14212  -1.58637  -0.89344
H    -1.58687  -0.58278   1.56960
H    -0.69524  -1.66859  -1.21265
H    -1.46868   1.38218  -1.29908
H     3.81123   0.69446  -0.73479
H     5.79532   1.17499   0.37518
H     4.87768   1.37369   1.89846
H     5.03314   2.74417   0.76725
H     0.79431  -2.15168   2.24527
H     2.07682  -0.95367   1.99283
H     0.41310  -0.41348   2.30213
H     2.83339  -1.46843  -0.32105
H     1.63803  -1.80627  -1.60524
H     1.89407  -2.96826  -0.27658
