29
Generated by autodE on: 2022-05-28. E = -762.895381 Ha
C     4.71840   0.92320   0.94002
N     3.38664   0.85661   0.37384
C     2.76614  -0.29764   0.06628
O     3.27046  -1.41951   0.23079
C     1.39757  -0.20272  -0.50095
C     0.61284   0.84164  -0.78436
C    -0.70419   0.38327  -1.33983
C    -1.89079   0.78890  -0.48703
C    -2.00160   0.33623   0.83664
C    -3.08971   0.71906   1.62231
C    -4.07313   1.56602   1.09647
C    -3.96491   2.02345  -0.21943
C    -2.87821   1.63226  -1.00884
O    -0.57079  -1.05395  -1.42506
C     0.66878  -1.47785  -0.88254
C     0.43770  -2.36218   0.28271
N     0.21265  -3.05357   1.18640
H     5.38281   1.53137   0.30681
H     4.69875   1.36702   1.94813
H     5.12642  -0.09144   1.00970
H     2.89599   1.73012   0.21358
H     0.83995   1.89901  -0.64369
H    -0.85298   0.77494  -2.36082
H    -1.23411  -0.32021   1.25320
H    -3.17052   0.35911   2.65074
H    -4.92322   1.86694   1.71343
H    -4.73050   2.68224  -0.63614
H    -2.79524   1.98236  -2.04104
H     1.23479  -2.06426  -1.62795
