18
Generated by autodE on: 2022-05-28. E = -477.266929 Ha
N     4.04602  -1.67388   0.04629
C     3.49003  -0.65600   0.24592
C     2.81124   0.53238   0.47568
O     1.47236   0.60576   0.33251
C     0.63625  -0.31286  -0.01168
C    -0.76085  -0.00965  -0.09652
C    -1.27858   1.27747   0.18494
C    -2.64522   1.51401   0.08763
C    -3.51991   0.48384  -0.28878
C    -3.01703  -0.79223  -0.56927
C    -1.65028  -1.04176  -0.47553
H     3.27515   1.46684   0.77717
H     1.02131  -1.31461  -0.23081
H    -0.59852   2.07905   0.47795
H    -3.03852   2.50940   0.30618
H    -4.59222   0.67802  -0.36256
H    -3.69591  -1.59607  -0.86232
H    -1.25341  -2.03612  -0.69319
