29
Generated by autodE on: 2022-05-28. E = -762.751195 Ha. Imaginary frequency = -296.5 cm-1
C     4.23216  -0.13219   1.29755
N     3.12093   0.35993   0.50600
C     2.81145  -0.21048  -0.68078
O     3.55021  -1.01701  -1.26053
C     1.54948   0.22599  -1.26050
C     0.58711   0.70105  -1.85995
C    -1.30449  -0.62784  -1.34689
C    -2.03007   0.23338  -0.41912
C    -2.38086  -0.17090   0.88495
C    -3.15376   0.66255   1.69466
C    -3.58629   1.90535   1.22390
C    -3.26535   2.30392  -0.08032
C    -2.50545   1.47335  -0.89845
O    -0.56460  -1.65948  -1.02618
C     0.34933  -1.83239  -0.07024
C     0.42071  -1.13142   1.13910
N     0.59213  -0.56084   2.14866
H     4.03923  -1.14780   1.68440
H     5.14799  -0.16478   0.69162
H     4.39309   0.54438   2.14606
H     2.37872   0.85645   0.99073
H    -0.01394   1.33605  -2.49181
H    -1.67404  -0.71081  -2.37228
H    -2.08907  -1.15254   1.25638
H    -3.42365   0.33291   2.70042
H    -4.18322   2.55748   1.86538
H    -3.61439   3.26650  -0.46069
H    -2.26663   1.78175  -1.91866
H     0.93393  -2.74174  -0.20257
