32
Generated by autodE on: 2022-06-17. E = -764.341187 Ha
C     3.06217   1.56182  -1.10965
O     1.98014   1.14924  -0.25984
C     1.33002   0.03729  -0.60460
O     1.64039  -0.65739  -1.54728
C     0.15706  -0.23973   0.35660
C     0.75216  -1.07238   1.51462
C     0.14225  -0.93175   2.87469
O     1.68892  -1.81971   1.29207
N    -0.49394   0.97714   0.83500
C    -1.60510   1.27023  -0.06321
C    -1.14147   1.86214  -1.33961
N    -0.70427   2.30866  -2.31877
C    -2.23586  -0.12187  -0.28034
C    -3.19094  -0.47098   0.85804
C    -0.97840  -1.02311  -0.41418
C    -1.16060  -2.48895  -0.03894
H     3.47506   2.46899  -0.65438
H     2.68162   1.77954  -2.11812
H     3.82902   0.77639  -1.16396
H     0.54464  -1.70970   3.53626
H    -0.95362  -0.98981   2.82386
H     0.38863   0.06271   3.27967
H     0.16229   1.74935   0.93315
H    -2.30903   1.98184   0.39275
H    -2.79350  -0.14176  -1.22783
H    -2.69498  -0.42258   1.83770
H    -4.03706   0.23310   0.87054
H    -3.60054  -1.48324   0.73053
H    -0.67951  -1.00158  -1.46965
H    -0.24032  -3.05332  -0.24709
H    -1.96853  -2.92927  -0.64308
H    -1.41640  -2.63196   1.02060
