20
Generated by autodE on: 2022-06-17. E = -606.988171 Ha
C    -3.66953  -0.55181  -0.65179
O    -2.47306   0.18789  -0.36835
C    -1.34200  -0.50855  -0.28839
O    -1.29419  -1.72541  -0.44829
C    -0.14086   0.28216   0.00983
N     0.95161  -0.52951   0.08127
C     2.22541  -0.29855   0.32117
C     3.13773  -1.37730   0.33251
N     3.92106  -2.24116   0.35043
C    -0.01208   1.71547   0.21895
C    -1.21815   2.61577   0.14024
O     1.10149   2.20357   0.46412
H    -4.47830   0.18744  -0.67643
H    -3.85718  -1.29584   0.13547
H    -3.58733  -1.05921  -1.62355
H     0.67447  -1.51077  -0.09283
H     2.55729   0.72009   0.50856
H    -1.97433   2.32636   0.88434
H    -1.69744   2.54704  -0.84707
H    -0.88669   3.64589   0.32465
