20
Generated by autodE on: 2022-07-27. E = -606.983424 Ha
C     1.62928   1.30493  -2.08739
O     0.82008   0.96097  -0.95829
C     0.90834  -0.28959  -0.48531
O     1.72618  -1.09798  -0.89627
C    -0.05179  -0.52871   0.58512
N    -1.12889   0.26014   0.83958
C    -1.79762   1.25907   0.30480
C    -1.59063   1.88837  -0.94352
N    -1.58758   2.47301  -1.95277
C     0.06315  -1.59957   1.58053
C     1.18319  -2.59554   1.50835
O    -0.78200  -1.65678   2.48634
H     2.69578   1.25597  -1.82454
H     1.35034   2.33003  -2.35646
H     1.42696   0.62497  -2.92759
H    -1.55117  -0.09957   1.72070
H    -2.66639   1.59893   0.87292
H     1.12699  -3.25522   2.38369
H     1.10499  -3.18891   0.58506
H     2.15877  -2.08853   1.47496
