32
Generated by autodE on: 2022-06-17. E = -764.270927 Ha. Imaginary frequency = -401.5 cm-1
C     2.40039   1.73151  -1.86056
O     1.64628   1.38610  -0.69364
C     1.48458   0.08134  -0.43198
O     2.07346  -0.79336  -1.04670
C     0.54660  -0.14025   0.67793
C     0.82295  -1.12616   1.73051
C     1.90086  -2.15561   1.53894
O     0.14135  -1.10314   2.76247
N    -0.36690   0.81146   1.05561
C    -1.26818   1.41107   0.23912
C    -0.91998   2.13268  -0.94688
N    -0.77873   2.73941  -1.93048
C    -2.13253  -0.31559  -0.78650
C    -3.45619  -0.38842  -0.06393
C    -1.17760  -1.32974  -0.64666
C    -1.41454  -2.50113   0.25770
H     3.43720   1.37797  -1.76803
H     2.37661   2.82528  -1.92324
H     1.94074   1.29231  -2.75791
H     1.91562  -2.81862   2.41329
H     1.73033  -2.73921   0.62414
H     2.88083  -1.66592   1.42527
H    -0.75595   0.55996   1.97110
H    -2.11750   1.85679   0.76483
H    -2.13832   0.19991  -1.75013
H    -3.32210  -0.53739   1.01871
H    -4.05646  -1.23857  -0.43464
H    -4.04573   0.52779  -0.21276
H    -0.42998  -1.44513  -1.43346
H    -2.27496  -3.09162  -0.10934
H    -1.66886  -2.18959   1.28324
H    -0.54592  -3.17093   0.30500
