39
Generated by autodE on: 2022-06-13. E = -1340.736657 Ha
C    -0.99093   1.80527  -3.82866
N    -0.84040   1.29635  -2.47764
C    -0.51737   2.09745  -1.45858
O    -0.34174   3.31615  -1.59770
C    -0.35180   1.44783  -0.06647
C    -1.30401   2.06468   0.99217
O    -1.77503   1.35523   1.88692
N    -1.50929   3.38248   0.90960
C    -2.32394   4.08968   1.87800
C    -0.49455   0.00023  -0.08138
C    -0.19482  -1.17366  -0.07900
C     0.70675  -2.28826   0.10698
Cl    0.21544  -3.74437  -0.93791
C     0.63441  -2.86601   1.55043
C    -0.71281  -2.88313   2.20647
O     1.64804  -3.26559   2.08303
C     2.12017  -1.83418  -0.29001
C     2.59423  -0.52997   0.38858
C     2.21580   0.83397  -0.25525
C     1.12745   1.68938   0.42562
H    -1.75158   2.59981  -3.86461
H    -0.04326   2.22190  -4.20473
H    -1.30250   0.98264  -4.48299
H    -0.93200   0.29892  -2.30878
H    -1.10031   3.86750   0.11049
H    -2.32187   5.15806   1.63050
H    -1.92844   3.96004   2.89751
H    -3.36386   3.72564   1.87006
H    -0.67939  -3.48821   3.12110
H    -1.47856  -3.26405   1.51468
H    -0.99187  -1.84583   2.45706
H     2.80352  -2.65435  -0.02907
H     2.14190  -1.71695  -1.38350
H     3.69321  -0.59017   0.39110
H     2.30181  -0.53464   1.45176
H     3.12538   1.45354  -0.24150
H     1.97563   0.69477  -1.32253
H     1.14214   1.51112   1.51165
H     1.33232   2.75703   0.26420
