21
Generated by autodE on: 2022-06-13. E = -607.966367 Ha
C    -3.94215   0.90359   0.00615
O    -2.76736   0.18265   0.39892
C    -1.60817   0.56478  -0.16533
O    -1.52794   1.47723  -0.96912
C    -0.48000  -0.24697   0.30562
N    -0.79960  -1.20086   1.15795
N    -1.05812  -2.02390   1.88978
C     0.93758  -0.11380  -0.08536
C     1.87815  -1.09094   0.30082
C     3.22086  -0.96891  -0.05438
C     3.65937   0.12638  -0.80540
C     2.73377   1.09811  -1.19409
C     1.38722   0.98723  -0.84064
H    -4.77096   0.45295   0.56434
H    -3.84688   1.96855   0.26335
H    -4.11510   0.80269  -1.07521
H     1.56470  -1.96088   0.88115
H     3.92842  -1.74074   0.25752
H     4.71129   0.22013  -1.08408
H     3.05917   1.96133  -1.77983
H     0.67958   1.75257  -1.14987
