39
Generated by autodE on: 2022-10-21. E = -993.252017 Ha
C    -1.86248  -0.82411   3.00298
O    -1.30215  -0.82832   1.68137
C    -2.14946  -0.94658   0.66052
O    -3.35247  -1.06288   0.79490
C    -1.45741  -0.83039  -0.69259
C    -1.24265   0.64295  -1.03152
C    -2.16830   1.49417  -1.72692
C    -3.53266   0.90848  -2.03196
O    -1.89429   2.64415  -2.11724
C     0.08987   0.88659  -0.69926
O     0.77211   2.00739  -0.56463
C     0.12726   3.16657   0.00177
N     0.75240  -0.27727  -0.43418
C     1.95971  -0.46985   0.27419
C     3.06964   0.35869   0.04336
C     4.24662   0.15367   0.76636
C     4.33960  -0.88358   1.69892
C     3.23809  -1.72068   1.90675
C     2.05045  -1.51913   1.20349
N    -0.09583  -1.39972  -0.68272
C     0.27860  -2.00765  -1.96303
H    -2.39685  -1.76506   3.19688
H    -1.01383  -0.72123   3.68871
H    -2.55439   0.02226   3.12139
H    -2.07445  -1.36710  -1.42178
H    -4.18505   1.69542  -2.43290
H    -3.98954   0.45417  -1.14120
H    -3.43426   0.10927  -2.78620
H     0.93840   3.86318   0.24429
H    -0.40859   2.87755   0.91761
H    -0.56874   3.60351  -0.72300
H     3.01296   1.14937  -0.70221
H     5.10427   0.80525   0.58332
H     5.26647  -1.04429   2.25387
H     3.29867  -2.53756   2.62988
H     1.18682  -2.16069   1.36810
H    -0.36540  -2.88035  -2.13751
H     1.32021  -2.35247  -1.90107
H     0.18027  -1.30580  -2.81201
