13
Generated by autodE on: 2022-10-21. E = -344.660260 Ha
C     3.02588  -0.86393   0.25532
O     2.26747   0.37685   0.15532
C     0.99519   0.27862   0.06560
C    -0.22089   0.24107  -0.02300
C    -1.65462   0.16838  -0.12981
C    -2.25100  -1.21535  -0.11103
O    -2.34484   1.17994  -0.23106
H     2.85005  -1.46979  -0.64409
H     4.07702  -0.56392   0.32324
H     2.71595  -1.40705   1.15862
H    -3.34404  -1.15255  -0.19900
H    -1.83871  -1.81158  -0.94121
H    -1.97592  -1.72907   0.82443
