26
Generated by autodE on: 2022-10-26. E = -648.482529 Ha
C    -1.48569   0.28787   2.18516
O    -1.40320   0.37873   0.75959
C    -1.76119  -0.70594   0.05490
O    -2.31511  -1.67364   0.56234
C    -1.51364  -0.59947  -1.37165
N    -0.61229   0.17559  -1.99592
C    -0.79642   0.34632  -3.45579
N     0.42918   0.81905  -1.56072
C     1.04002   0.46940  -0.35329
C     1.59276   1.50984   0.41516
C     2.29565   1.23321   1.58922
C     2.48618  -0.08754   2.00515
C     1.97149  -1.13108   1.22318
C     1.25176  -0.86392   0.06129
H    -0.87003  -0.54658   2.55227
H    -1.09732   1.23740   2.57126
H    -2.52701   0.14494   2.50857
H    -2.15855  -1.19238  -2.01552
H    -1.77271  -0.04249  -3.76052
H    -0.72777   1.41873  -3.67297
H     0.01462  -0.18207  -3.97343
H     1.44489   2.53907   0.08205
H     2.69994   2.05818   2.18108
H     3.03587  -0.30574   2.92331
H     2.13040  -2.16922   1.52575
H     0.84959  -1.69288  -0.52367
