26
Generated by autodE on: 2022-10-21. E = -648.487948 Ha
C     4.07158   1.81488  -0.31600
O     2.71206   1.42591  -0.11419
C     2.43823   0.10096  -0.24564
O     3.31303  -0.71386  -0.52010
C     1.03043  -0.11724  -0.02399
N     0.42820  -1.31798  -0.02234
C     1.22583  -2.55335  -0.18986
N    -0.83313  -1.55850   0.15620
C    -1.73764  -0.48179   0.20461
C    -2.63450  -0.43298   1.28561
C    -3.63018   0.54520   1.33507
C    -3.75781   1.47474   0.29902
C    -2.87986   1.41758  -0.79075
C    -1.87348   0.45408  -0.84150
H     4.73502   1.32075   0.41000
H     4.40618   1.56489  -1.33434
H     4.10195   2.90147  -0.16939
H     0.40602   0.75076   0.16248
H     2.00977  -2.58903   0.57398
H     1.69035  -2.55137  -1.18184
H     0.53041  -3.38952  -0.08365
H    -2.53738  -1.17297   2.08257
H    -4.31361   0.57546   2.18709
H    -4.54030   2.23598   0.33483
H    -2.98151   2.13042  -1.61274
H    -1.19976   0.41454  -1.69957
