39
Generated by autodE on: 2022-10-21. E = -993.132553 Ha. Imaginary frequency = -396.2 cm-1
C    -1.75342  -0.99102   2.39594
O    -1.36543  -0.88683   1.01982
C    -1.13693  -2.02087   0.35937
O    -1.36837  -3.13068   0.80879
C    -0.66122  -1.81073  -1.01196
C    -0.86153   2.15928  -1.27736
C    -2.16774   1.61383  -1.22396
C    -2.91709   1.77708   0.08395
O    -2.72697   1.08175  -2.20248
C     0.37657   1.93054  -1.16163
O     1.56507   2.47581  -1.06976
C     2.54724   2.11236  -2.05458
N     0.79668   0.05753  -0.75739
C     1.21979  -0.22463   0.55552
C     1.15255   0.77249   1.54199
C     1.65054   0.52800   2.82333
C     2.22146  -0.70629   3.14194
C     2.30247  -1.69723   2.15511
C     1.81145  -1.46426   0.87239
N     0.10101  -0.81859  -1.45090
C     0.14942  -0.60960  -2.91611
H    -0.98610  -1.53568   2.96444
H    -1.83927   0.03702   2.76359
H    -2.71857  -1.50972   2.48369
H    -0.96328  -2.55321  -1.74836
H    -3.57252   2.66185   0.00994
H    -3.55455   0.89664   0.25153
H    -2.23970   1.92162   0.93698
H     2.81869   1.05346  -1.93752
H     3.42015   2.74842  -1.86539
H     2.15487   2.29202  -3.06698
H     0.68462   1.72944   1.31331
H     1.58035   1.31197   3.58107
H     2.60471  -0.89603   4.14672
H     2.76019  -2.66256   2.38407
H     1.88301  -2.24700   0.11513
H    -0.02434  -1.56999  -3.41323
H     1.13131  -0.20844  -3.18199
H    -0.64871   0.09446  -3.18220
