23
Generated by autodE on: 2022-10-24. E = -572.023887 Ha
C     0.11174   3.17901  -0.81547
N    -0.06688   2.05788  -0.40038
C    -0.31366   0.81905  -0.11157
C    -1.76780   0.47508  -0.11281
O    -2.63057   1.36452  -0.13083
N    -2.09117  -0.83525  -0.13277
C    -3.47377  -1.26730  -0.17094
C     0.81919  -0.10611   0.11034
C     2.02113   0.08049  -0.60104
C     3.10846  -0.76841  -0.39798
C     3.02089  -1.82141   0.51974
C     1.83774  -2.00912   1.23964
C     0.74761  -1.15805   1.04444
H     0.19183   4.06807  -0.16992
H    -1.35878  -1.53242  -0.20187
H    -3.50782  -2.35745  -0.05380
H    -3.96077  -0.99834  -1.12333
H    -4.05036  -0.80404   0.64399
H     2.09735   0.89739  -1.32230
H     4.02962  -0.60991  -0.96382
H     3.87213  -2.48788   0.67595
H     1.76254  -2.81795   1.97029
H    -0.15634  -1.30229   1.63739
