65
Generated by autodE on: 2022-06-15. E = -1716.796035 Ha
C     0.66441  -3.31728  -1.82913
C    -0.79477  -3.78312  -2.00826
C    -0.90033  -5.13897  -1.23766
F    -0.30889  -6.14262  -1.91879
F    -0.29891  -5.11104  -0.03627
F    -2.17034  -5.52807  -1.01614
C    -0.98965  -4.11730  -3.51527
C    -1.01140  -2.95358  -4.50622
C    -2.20135  -1.99650  -4.44305
C    -3.57246  -2.64352  -4.35213
C    -3.99518  -3.30550  -2.94888
C    -5.42865  -2.94119  -2.83734
N    -6.55469  -2.67508  -2.90771
C    -4.02723  -4.77724  -3.06653
N    -4.14373  -5.92228  -3.20250
C    -3.17744  -2.77360  -1.74784
C    -1.85545  -2.82623  -1.43950
C    -1.62593  -1.84489  -0.23823
C    -0.68058  -0.66249  -0.49335
C    -0.25943  -0.28447  -1.77331
C     0.48450   0.88221  -1.97335
C     0.80319   1.70811  -0.89350
C     0.36027   1.36067   0.38636
C    -0.37600   0.19073   0.58239
C    -1.25717  -2.60717   1.04856
C    -2.24927  -3.30678   1.74865
C    -1.94072  -4.05566   2.88598
C    -0.62572  -4.11427   3.35565
C     0.37069  -3.40789   2.67795
C     0.05586  -2.66168   1.53965
N    -2.97152  -1.17910  -0.10908
N    -3.91122  -1.92481  -0.88367
C    -4.99409  -2.46800  -0.12459
C    -5.87571  -1.57497   0.50039
C    -6.95361  -2.05970   1.23918
C    -7.17653  -3.43868   1.34728
C    -6.29561  -4.32788   0.72847
C    -5.19809  -3.84902   0.00733
H     1.33843  -4.15242  -2.06813
H     0.88483  -2.98654  -0.81162
H     0.89819  -2.49899  -2.51582
H    -1.87956  -4.73998  -3.66117
H    -0.15185  -4.76905  -3.79585
H    -0.99785  -3.41180  -5.50875
H    -0.07924  -2.37157  -4.43130
H    -2.20919  -1.40202  -5.37106
H    -2.09889  -1.26512  -3.63188
H    -3.70298  -3.42010  -5.11934
H    -4.32290  -1.86908  -4.54947
H    -0.50872  -0.89787  -2.63284
H     0.81025   1.14385  -2.98277
H     1.38434   2.62022  -1.04803
H     0.58651   2.00426   1.23979
H    -0.72057  -0.05870   1.58648
H    -3.28120  -3.27450   1.40931
H    -2.73656  -4.59345   3.40710
H    -0.38103  -4.69953   4.24529
H     1.40307  -3.43405   3.03494
H     0.85449  -2.11929   1.03481
H    -2.88842  -0.27521  -0.57295
H    -5.70878  -0.50178   0.39538
H    -7.63436  -1.35583   1.72375
H    -8.02974  -3.81477   1.91598
H    -6.44793  -5.40593   0.81823
H    -4.49244  -4.55634  -0.42902
