37
Generated by autodE on: 2022-06-15. E = -843.511273 Ha
C     5.51338  -0.30245   0.07810
C     4.64851   0.68102   0.56881
C     3.26292   0.53071   0.48285
C     2.69784  -0.61862  -0.12821
N     1.35009  -0.86869  -0.28993
N     0.56147   0.16950  -0.10884
C    -0.76650   0.18122  -0.03916
C    -1.54479  -1.06449   0.02842
C    -2.78873  -1.14548  -0.63065
C    -3.55977  -2.30618  -0.56164
C    -3.11120  -3.40621   0.17570
C    -1.88100  -3.33622   0.83998
C    -1.10009  -2.18418   0.76184
C    -1.41357   1.50219  -0.04618
C    -2.59248   1.72312   0.69792
C    -3.18731   2.98295   0.73224
C    -2.62229   4.05339   0.02859
C    -1.45805   3.84818  -0.71752
C    -0.86355   2.58623  -0.76392
C     3.58811  -1.61564  -0.60198
C     4.96607  -1.45691  -0.50181
H     6.59566  -0.17933   0.15664
H     5.05590   1.57679   1.04536
H     2.62901   1.30113   0.92775
H     0.99743   1.10072  -0.05409
H    -3.14717  -0.29330  -1.21023
H    -4.51560  -2.35132  -1.08879
H    -3.71561  -4.31453   0.23180
H    -1.52572  -4.18877   1.42375
H    -0.14133  -2.14417   1.27655
H    -3.03188   0.90236   1.26673
H    -4.09556   3.13352   1.32054
H    -3.09166   5.03933   0.05648
H    -1.01742   4.67144  -1.28462
H     0.01959   2.43651  -1.38954
H     3.15975  -2.50962  -1.06074
H     5.62531  -2.24133  -0.88307
