37
Generated by autodE on: 2022-07-27. E = -843.511312 Ha
C    -4.57939   1.90498  -2.41505
C    -3.62819   2.55267  -1.62040
C    -2.55429   1.85230  -1.06698
C    -2.38975   0.46567  -1.31914
N    -1.36095  -0.32317  -0.84541
N    -0.32037   0.33546  -0.38019
C     0.71642  -0.15116   0.29532
C     1.84894   0.76285   0.50788
C     2.18766   1.74884  -0.44415
C     3.22944   2.64581  -0.20249
C     3.96758   2.56898   0.98218
C     3.65241   1.58568   1.92770
C     2.60695   0.69370   1.69660
C     0.72870  -1.53475   0.79368
C    -0.42996  -2.15260   1.30873
C    -0.37686  -3.45133   1.81210
C     0.82459  -4.16962   1.79716
C     1.97866  -3.57165   1.28198
C     1.93387  -2.26663   0.79041
C    -3.37470  -0.18052  -2.10861
C    -4.44420   0.52757  -2.64596
H    -5.42022   2.45920  -2.83755
H    -3.73008   3.62057  -1.40893
H    -1.86689   2.38898  -0.40907
H    -0.25527   1.34155  -0.59042
H     1.65531   1.79736  -1.39696
H     3.47713   3.39753  -0.95553
H     4.78853   3.26582   1.16550
H     4.22121   1.51887   2.85811
H     2.35871  -0.05513   2.45017
H    -1.37199  -1.60631   1.31856
H    -1.28207  -3.90841   2.21890
H     0.85963  -5.19065   2.18414
H     2.92061  -4.12464   1.26044
H     2.83986  -1.81004   0.38881
H    -3.26263  -1.25103  -2.29460
H    -5.18291   0.00164  -3.25666
