65
Generated by autodE on: 2022-06-15. E = -1716.730450 Ha. Imaginary frequency = -320.6 cm-1
C    -0.94079  -1.32731  -3.28266
C    -0.89186  -2.76618  -2.71923
C     0.48659  -2.97355  -2.08216
F     1.47872  -2.88543  -2.99382
F     0.77296  -2.06373  -1.13089
F     0.59976  -4.19076  -1.51245
C    -1.01637  -3.79248  -3.88367
C    -2.40482  -3.82773  -4.54130
C    -3.20429  -5.09936  -4.25165
C    -3.42410  -5.46325  -2.78478
C    -4.12109  -4.36667  -1.89484
C    -5.25250  -3.79220  -2.65408
N    -6.10295  -3.39214  -3.33370
C    -4.66697  -5.08823  -0.72370
N    -5.05292  -5.74848   0.14741
C    -3.13072  -3.30481  -1.44809
C    -1.96254  -2.89805  -1.69345
C    -1.81972  -2.06558   0.92146
C    -0.93026  -0.91281   1.19033
C    -0.93981   0.20452   0.33302
C    -0.15001   1.32067   0.60663
C     0.67276   1.33886   1.73764
C     0.69183   0.23521   2.59626
C    -0.10208  -0.88066   2.32820
C    -1.45155  -3.43064   1.33796
C    -2.41892  -4.35535   1.78156
C    -2.04446  -5.62776   2.21128
C    -0.69983  -6.01167   2.20506
C     0.27085  -5.10041   1.77635
C    -0.09821  -3.82465   1.35411
N    -3.07372  -1.73496   0.60417
N    -3.95386  -2.57611   0.05061
C    -5.14430  -1.89493  -0.35298
C    -5.09192  -0.77495  -1.20146
C    -6.27318  -0.17441  -1.63580
C    -7.51246  -0.68607  -1.23255
C    -7.56474  -1.79555  -0.38349
C    -6.38500  -2.39919   0.05803
H    -0.15447  -1.18483  -4.03857
H    -0.80750  -0.58441  -2.48664
H    -1.91532  -1.15025  -3.75613
H    -0.75843  -4.79101  -3.49937
H    -0.24956  -3.54180  -4.63103
H    -2.29328  -3.74803  -5.63357
H    -2.99305  -2.94604  -4.24330
H    -2.68599  -5.96144  -4.70429
H    -4.18114  -5.03247  -4.75704
H    -2.47905  -5.69530  -2.27459
H    -4.05193  -6.36484  -2.74397
H    -1.55057   0.18576  -0.57185
H    -0.16507   2.17329  -0.07595
H     1.29866   2.20914   1.94786
H     1.32340   0.24496   3.48752
H    -0.09482  -1.72480   3.01831
H    -3.46927  -4.07739   1.77919
H    -2.81488  -6.32674   2.54500
H    -0.41015  -7.01308   2.53191
H     1.32529  -5.38578   1.76458
H     0.66921  -3.13388   1.01174
H    -3.24336  -0.73299   0.47186
H    -4.12611  -0.40064  -1.54922
H    -6.22809   0.68716  -2.30606
H    -8.43631  -0.21955  -1.58201
H    -8.52952  -2.19503  -0.06253
H    -6.41359  -3.26775   0.71674
