47
Generated by autodE on: 2022-06-21. E = -981.896623 Ha
C     4.07895   1.76568   1.80142
N     2.88143   1.31227   1.12356
C     2.92734   0.59576  -0.00654
O     3.98386   0.28906  -0.57606
C     1.59218   0.17042  -0.59408
O     0.50617   0.73850   0.12732
C    -0.61586  -0.14846   0.20681
C    -0.86859  -0.46266   1.70311
C    -0.28927   0.49431   2.71142
O    -1.58230  -1.38719   2.04887
C    -1.87432   0.60285  -0.24653
C    -3.14760   0.02530  -0.11731
C    -4.28206   0.70024  -0.57280
C    -4.16437   1.96633  -1.15550
C    -2.90111   2.55084  -1.27597
C    -1.76408   1.87491  -0.82293
C    -0.22484  -1.36867  -0.73458
C    -0.65912  -1.05115  -2.17824
C    -0.83581  -2.72397  -0.37312
C     1.34674  -1.35432  -0.60835
C     1.82611  -2.00473   0.69946
C     2.07236  -2.02948  -1.77481
H     4.68705   0.91670   2.15356
H     4.70550   2.37476   1.13140
H     3.78981   2.37464   2.66654
H     1.96483   1.50221   1.51444
H     1.59000   0.55127  -1.63010
H    -0.77619   0.32817   3.68095
H     0.79127   0.31729   2.82166
H    -0.42048   1.53638   2.38647
H    -3.25468  -0.95643   0.34365
H    -5.26433   0.23306  -0.46911
H    -5.05282   2.49459  -1.50945
H    -2.79549   3.54123  -1.72559
H    -0.77988   2.33101  -0.92208
H    -1.75405  -1.01394  -2.24831
H    -0.31483  -1.84310  -2.85667
H    -0.27120  -0.09062  -2.54509
H    -1.92876  -2.70025  -0.49194
H    -0.61349  -3.05210   0.64605
H    -0.44631  -3.48073  -1.07225
H     2.91161  -1.86774   0.81254
H     1.63430  -3.08639   0.68651
H     1.34530  -1.58953   1.59550
H     3.15593  -2.02612  -1.59077
H     1.89811  -1.51656  -2.73017
H     1.74908  -3.07685  -1.87826
