18
Generated by autodE on: 2022-06-21. E = -235.968074 Ha
C    -1.47655  -1.30526   0.05171
C    -0.57553  -0.15284  -0.32230
C    -1.11552   0.61672  -1.50384
C     0.57554   0.15291   0.32234
C     1.11573  -0.61713   1.50345
C     1.47633   1.30564  -0.05133
H    -2.49299  -0.93814   0.28131
H    -1.59062  -1.99615  -0.80299
H    -1.13037  -1.89100   0.91162
H    -2.12625   1.00300  -1.28045
H    -1.23316  -0.05195  -2.37551
H    -0.49408   1.46510  -1.81413
H     0.49726  -1.46911   1.80983
H     2.12860  -0.99853   1.28139
H     1.22848   0.04965   2.37722
H     1.59344   1.99414   0.80486
H     1.12793   1.89401  -0.90854
H     2.49185   0.93845  -0.28501
