29
Generated by autodE on: 2022-06-21. E = -745.833506 Ha
C     4.88552  -0.38727  -0.46363
N     3.45488  -0.27822  -0.27114
C     2.64580   0.16829  -1.25779
O     3.06975   0.51471  -2.37490
C     1.21426   0.24510  -0.97544
O     0.79345  -0.15693   0.18190
C    -0.40378  -0.27285   0.73889
C    -0.35330  -0.87031   2.06380
C     0.99950  -1.27779   2.60551
O    -1.38402  -1.03751   2.72686
C    -1.62364   0.18217   0.06989
C    -1.66837   1.41140  -0.62129
C    -2.84962   1.84424  -1.22354
C    -4.00574   1.06018  -1.15351
C    -3.97456  -0.15897  -0.46819
C    -2.79849  -0.59567   0.14043
H     5.34081  -0.75830   0.46251
H     5.33301   0.58914  -0.71059
H     5.13100  -1.08437  -1.28152
H     3.04838  -0.55538   0.61579
H     0.52210   0.60865  -1.73459
H     0.86305  -1.70074   3.60881
H     1.47532  -2.02495   1.95120
H     1.67938  -0.41295   2.66001
H    -0.78435   2.04958  -0.66600
H    -2.86741   2.80248  -1.74768
H    -4.92802   1.39855  -1.63126
H    -4.87295  -0.77799  -0.41134
H    -2.78023  -1.54711   0.67084
