29
Generated by autodE on: 2022-07-27. E = -745.833450 Ha
C     4.77457  -0.14473   1.17587
N     3.35750  -0.09708   0.88367
C     2.90148   0.31744  -0.31951
O     3.65508   0.68679  -1.23789
C     1.45492   0.32697  -0.52558
O     0.69715  -0.10886   0.43022
C    -0.60833  -0.29331   0.56525
C    -0.95840  -0.91119   1.83500
C     0.16703  -1.26655   2.78225
O    -2.13774  -1.13849   2.12986
C    -1.56570   0.10350  -0.46815
C    -2.66436  -0.72972  -0.76868
C    -3.59985  -0.34933  -1.72997
C    -3.46426   0.86742  -2.40697
C    -2.38376   1.70535  -2.11317
C    -1.44124   1.32907  -1.15639
H     5.30318  -0.84051   0.50360
H     5.24046   0.84764   1.06389
H     4.91217  -0.48315   2.20990
H     2.69298  -0.39404   1.59010
H     1.03541   0.66169  -1.47410
H     0.75173  -0.37336   3.05344
H     0.86214  -1.98094   2.31402
H    -0.26372  -1.71191   3.68790
H    -2.77540  -1.67973  -0.24735
H    -4.43956  -1.01062  -1.95596
H    -4.19807   1.16181  -3.16072
H    -2.27479   2.66200  -2.62914
H    -0.62021   2.00933  -0.92509
