41
Generated by autodE on: 2022-06-21. E = -1157.016109 Ha
C    -1.73845   1.54884  -2.65889
O    -1.59589   0.43109  -1.76629
C    -1.50701   0.69267  -0.47614
O    -1.64446   1.80067   0.00668
C    -1.20840  -0.54448   0.38335
C    -2.33506  -1.60974   0.24769
C    -2.59991  -2.46778   1.45144
O    -2.94982  -1.74904  -0.79009
N    -1.04430  -0.13168   1.77633
C     0.35858  -0.27836   2.20026
C     0.50302  -1.48772   3.05212
N     0.59914  -2.45124   3.68874
C     0.79857   0.87528   3.00313
N     1.13271   1.78599   3.63635
C     1.18588  -0.44687   0.89279
C     1.57798   0.90769   0.28339
C     1.71516   0.82290  -1.21459
C     2.32962   1.91044  -1.99368
N     2.79557   2.97256  -1.29071
O     2.42261   1.88589  -3.23710
C     1.22689  -0.24568  -1.90314
N     0.58338  -1.30654  -1.34737
C    -0.01971  -2.32252  -2.19856
C     0.18734  -1.23496   0.02815
H    -2.61720   2.14927  -2.38777
H    -1.85985   1.11756  -3.65853
H    -0.83060   2.16858  -2.62050
H    -3.23890  -3.30916   1.15440
H    -3.11268  -1.86765   2.21861
H    -1.66818  -2.83498   1.90533
H    -1.36712   0.82833   1.89491
H     2.08058  -1.05591   1.07188
H     2.52831   1.21504   0.74714
H     0.84587   1.68687   0.55452
H     2.71268   3.04778  -0.28485
H     3.19527   3.75157  -1.80227
H     1.35179  -0.28565  -2.98638
H     0.63147  -2.50839  -3.06328
H    -0.12386  -3.25889  -1.63250
H    -1.01432  -2.01882  -2.55925
H     0.12633  -2.26291   0.41197
