20
Generated by autodE on: 2022-06-21. E = -457.715318 Ha
C    -3.12437  -0.57673   0.06473
N    -1.82649   0.07762   0.09693
C    -1.75762   1.47644   0.09417
C    -0.59425   2.14492   0.05243
C     0.74914   1.45999   0.00231
C     0.57455  -0.05013  -0.01658
C     1.73435  -0.95398  -0.07925
N     2.95358  -0.35908  -0.10715
O     1.63699  -2.19780  -0.10794
C    -0.66090  -0.62438   0.02644
H    -3.64788  -0.38830  -0.88782
H    -2.98701  -1.65903   0.18072
H    -3.76140  -0.21506   0.88679
H    -2.72307   1.98424   0.13169
H    -0.62236   3.23696   0.05868
H     1.31838   1.80350  -0.88581
H     1.37014   1.77617   0.86580
H     3.77913  -0.94664  -0.14736
H     3.07539   0.64490  -0.07534
H    -0.75761  -1.71110   0.00919
