21
Generated by autodE on: 2022-07-27. E = -699.251368 Ha
C    -2.00267   2.55862  -2.65430
O    -1.44317   1.34082  -2.13184
C    -0.81912   1.41921  -0.96976
O    -0.69136   2.45157  -0.32637
C    -0.25806   0.13381  -0.48057
N     0.35473   0.31668   0.69324
C     0.92708  -0.46011   1.62824
C     0.84945  -1.87371   1.71228
N     0.79894  -3.01015   1.96575
C     1.54675   0.19968   2.72492
N     2.06827   0.72029   3.62719
C    -0.16965  -1.14644  -1.20866
C    -1.03562  -1.41169  -2.40484
O     0.65485  -1.97266  -0.82357
H    -2.47023   2.28546  -3.60652
H    -1.20918   3.30190  -2.81401
H    -2.75252   2.96025  -1.95847
H     0.33853   1.32453   0.93607
H    -0.70952  -0.78894  -3.25179
H    -2.08539  -1.15796  -2.20169
H    -0.93606  -2.47163  -2.67205
