43
Generated by autodE on: 2022-06-18. E = -917.606399 Ha
C     3.29752  -2.62491  -0.68819
N     2.46910  -1.44184  -0.52930
C     2.94454  -0.31765   0.06387
C     2.18754   0.76470   0.40804
C     2.87333   1.90028   1.03644
N     2.08751   2.92225   1.46680
O     4.11219   1.95781   1.18676
C     0.69364   0.72900   0.20309
C     0.30079  -0.25257  -0.91277
C     1.05883  -1.57917  -0.79011
N     0.34370  -2.29370   0.28290
N    -1.03841  -1.91305   0.14083
C    -1.88336  -3.06643  -0.10132
C    -1.16480  -0.76691  -0.81705
C    -1.65020  -1.19968  -2.21723
C    -2.12379   0.29730  -0.27894
C    -2.30230   1.49723  -0.98986
C    -3.16498   2.48993  -0.52085
C    -3.87689   2.29972   0.66913
C    -3.70912   1.11096   1.38260
C    -2.83727   0.12142   0.91306
H     3.11268  -3.08538  -1.67119
H     4.35755  -2.34487  -0.62625
H     3.08851  -3.38148   0.08723
H     4.02066  -0.30478   0.24900
H     2.52783   3.70062   1.94446
H     1.07701   2.88215   1.43686
H     0.17871   0.45570   1.14164
H     0.30948   1.72359  -0.06490
H     0.48675   0.21198  -1.89071
H     0.95030  -2.15645  -1.71999
H     0.67179  -1.88516   1.16249
H    -1.81751  -3.75140   0.75750
H    -1.62235  -3.64003  -1.01252
H    -2.93101  -2.74252  -0.18559
H    -1.00401  -1.97830  -2.64731
H    -1.64028  -0.33919  -2.89973
H    -2.67805  -1.58604  -2.18344
H    -1.74971   1.66593  -1.91683
H    -3.28052   3.41810  -1.08621
H    -4.55431   3.07444   1.03648
H    -4.25651   0.94957   2.31488
H    -2.69447  -0.79845   1.47942
