20
Generated by autodE on: 2022-06-18. E = -457.715318 Ha
C     3.14160   0.30257   0.37715
N     1.82431  -0.14446  -0.04422
C     1.70382  -1.31553  -0.80253
C     0.51622  -1.81987  -1.17300
C    -0.80107  -1.18188  -0.80664
C    -0.57198   0.07331   0.01967
C    -1.69934   0.88527   0.50548
N    -2.93925   0.43370   0.18925
O    -1.55757   1.93166   1.17080
C     0.68416   0.49466   0.34011
H     3.04990   1.26734   0.89126
H     3.60903  -0.42000   1.06694
H     3.80664   0.43044  -0.49145
H     2.65050  -1.78682  -1.07295
H     0.50384  -2.73494  -1.76954
H    -1.38011  -0.95097  -1.72426
H    -1.43447  -1.90846  -0.25728
H    -3.74410   0.96137   0.50870
H    -3.09541  -0.41425  -0.34063
H     0.82032   1.39772   0.93729
