43
Generated by autodE on: 2022-06-18. E = -917.539742 Ha. Imaginary frequency = -388.5 cm-1
C     2.49377  -2.40121   1.17198
N     2.08446  -1.34144   0.26785
C     2.04272  -0.05137   0.69327
C     1.56646   0.98740  -0.05261
C     1.56899   2.31729   0.55992
N     1.26977   3.36499  -0.25670
O     1.84656   2.52235   1.76211
C     1.07892   0.74400  -1.46463
C     0.75767  -0.71921  -1.67802
C     1.33324  -1.70854  -0.87324
N    -0.37872  -2.60649   0.03818
N    -1.31497  -2.24965  -0.84857
C    -1.61944  -3.21477  -1.90858
C    -1.43479  -0.90399  -1.09792
C    -2.11505  -0.49512  -2.38076
C    -1.52689   0.06021   0.03196
C    -1.92467   1.39261  -0.22331
C    -1.99230   2.34804   0.79400
C    -1.69569   2.00461   2.11319
C    -1.34361   0.68051   2.39662
C    -1.25165  -0.26821   1.38047
H     3.00970  -3.19490   0.61024
H     3.18791  -2.00074   1.92243
H     1.62745  -2.84946   1.68611
H     2.43198   0.13271   1.69628
H     1.13278   4.27461   0.17011
H     0.91819   3.22466  -1.19528
H     0.18754   1.36167  -1.67678
H     1.83663   1.07840  -2.20543
H     0.53213  -1.01298  -2.70533
H     1.61443  -2.67410  -1.29405
H    -0.27296  -3.62258  -0.03916
H    -1.60052  -4.21817  -1.46506
H    -0.86697  -3.16553  -2.71458
H    -2.61743  -3.04345  -2.32740
H    -3.20969  -0.40374  -2.26656
H    -1.73937   0.48584  -2.69977
H    -1.90783  -1.18706  -3.20321
H    -2.18239   1.70762  -1.23243
H    -2.28085   3.37202   0.54389
H    -1.73690   2.75373   2.90733
H    -1.11462   0.38395   3.42366
H    -0.92892  -1.28023   1.60772
