50
Generated by autodE on: 2022-06-03. E = -1452.418192 Ha
C     6.23684  -0.20936   0.76147
N     4.87196  -0.51237   1.14439
C     3.87468   0.37524   0.95762
O     4.06649   1.50316   0.47620
C     2.51585  -0.04407   1.34023
C     1.94613  -1.24948   1.48988
F     2.50468  -2.44960   1.42974
C     0.44540  -1.04600   1.56993
O     0.39518   0.23090   2.21171
C     1.31169   0.89585   1.32198
C     0.62451   0.70724  -0.06106
C    -0.56639   1.65313  -0.31257
C    -0.58213   2.05658  -1.78480
O    -1.25831   1.53104  -2.64612
O     0.27418   3.05183  -2.02305
C     0.42056   3.47089  -3.38933
N    -1.73730   0.91140   0.10558
C    -3.02981   1.54305  -0.10334
C    -1.53258  -0.51806  -0.09531
C    -2.31172  -1.39047   0.90663
O    -2.52604  -2.57933   0.64595
N    -2.65524  -0.79041   2.05082
C    -3.21990  -1.51142   3.17348
C    -1.92208  -1.02119  -1.50636
O    -1.16435  -1.52437  -2.30822
O    -3.21559  -0.81739  -1.74471
C    -3.69527  -1.15593  -3.05431
C    -0.00457  -0.71042   0.11049
H     6.31680  -0.01316  -0.31984
H     6.87345  -1.06611   1.01300
H     6.61241   0.67893   1.29373
H     4.66019  -1.42501   1.53305
H    -0.11736  -1.81598   2.10651
H     1.49226   1.93117   1.62701
H     1.36689   0.76681  -0.86457
H    -0.46865   2.58095   0.27348
H     1.16668   4.27367  -3.38185
H    -0.53671   3.84449  -3.78014
H     0.76803   2.63315  -4.01098
H    -3.28661   1.69920  -1.16425
H    -3.82380   0.93965   0.35410
H    -3.02096   2.52509   0.39608
H    -2.32413   0.16391   2.17090
H    -3.74136  -0.80665   3.83394
H    -3.93626  -2.26147   2.81181
H    -2.44000  -2.03105   3.75613
H    -3.16817  -0.56123  -3.81403
H    -4.76428  -0.91469  -3.05651
H    -3.54484  -2.22654  -3.25326
H     0.37313  -1.45319  -0.59698
