30
Generated by autodE on: 2022-07-27. E = -837.400219 Ha
C    -1.06010  -3.52983   2.49358
N    -1.11946  -2.44087   1.54380
C    -0.49700  -1.26663   1.79809
O     0.05510  -1.06168   2.89663
C    -0.48440  -0.25734   0.71841
C    -1.03855  -0.51895  -0.60326
O    -1.37622  -1.62892  -1.01425
O    -1.25676   0.58359  -1.34093
C    -1.70879   0.38877  -2.68280
N     0.04171   0.98755   1.01088
C    -0.21154   1.60730   2.33850
C     0.73719   1.73230   0.16967
C     1.43113   1.23655  -1.02179
O     1.51112   0.08200  -1.40581
O     2.05480   2.25912  -1.62773
C     2.84159   1.93586  -2.78127
H    -1.63782  -4.37549   2.09949
H    -0.02459  -3.86647   2.67561
H    -1.48724  -3.23645   3.46524
H    -1.42861  -2.60399   0.58742
H    -0.99418  -0.23135  -3.24355
H    -1.76679   1.38916  -3.12800
H    -2.69901  -0.08942  -2.69995
H     0.64158   1.42235   2.99913
H    -1.12118   1.18537   2.77146
H    -0.33377   2.68548   2.18005
H     0.90883   2.77054   0.44826
H     2.21857   1.45319  -3.54862
H     3.66837   1.26381  -2.50831
H     3.23552   2.88795  -3.15473
