30
Generated by autodE on: 2022-06-03. E = -837.400353 Ha
C    -2.50952   3.46242  -0.08002
N    -2.28441   2.03545  -0.13752
C    -1.04353   1.51531  -0.00647
O    -0.04606   2.25648   0.10543
C    -0.94726   0.03955   0.04470
C    -2.08874  -0.83081  -0.10640
O    -3.27122  -0.47424  -0.12198
O    -1.75503  -2.12654  -0.30296
C    -2.83224  -3.06248  -0.39406
N     0.31429  -0.51132   0.27590
C     0.45576  -1.58175   1.29409
C     1.37384   0.02088  -0.29099
C     2.77147  -0.26869   0.06641
O     3.17990  -1.02002   0.93375
O     3.57708   0.43464  -0.74295
C     4.98701   0.25931  -0.55169
H    -3.55226   3.66862  -0.35382
H    -1.84887   3.99336  -0.78244
H    -2.32566   3.87674   0.92680
H    -3.06482   1.38000  -0.12042
H    -3.47344  -2.83779  -1.25900
H    -3.44281  -3.04951   0.52110
H    -2.36552  -4.04692  -0.51942
H     0.93078  -2.46323   0.84975
H     1.08838  -1.19920   2.10246
H    -0.53120  -1.82954   1.68412
H     1.21308   0.73017  -1.09624
H     5.26766  -0.79297  -0.70583
H     5.47450   0.89643  -1.29828
H     5.27871   0.56888   0.46262
