50
Generated by autodE on: 2022-06-03. E = -1452.310125 Ha. Imaginary frequency = -277.6 cm-1
C     6.44355  -0.66425   1.08616
N     5.02318  -0.84032   1.31226
C     4.13062   0.11352   0.97220
O     4.47493   1.19423   0.46639
C     2.71114  -0.17550   1.22071
C     2.02893  -1.30086   1.48024
F     2.47793  -2.53120   1.67907
C     0.53196  -0.97056   1.39770
O     0.57993   0.37399   1.89307
C     1.57476   0.84137   0.95868
C     0.91859   0.44711  -0.37444
C    -0.97393   1.96434  -0.67129
C    -0.66782   1.67730  -2.07378
O    -0.91183   0.68021  -2.73437
O     0.01686   2.72337  -2.58454
C     0.50483   2.57135  -3.92144
N    -1.79374   1.31164   0.17803
C    -2.07776   2.05282   1.42984
C    -2.07450  -0.02919   0.04065
C    -2.45228  -0.85133   1.23377
O    -2.40807  -0.42503   2.39653
N    -2.79024  -2.13654   0.98048
C    -3.00349  -3.07252   2.06410
C    -2.61679  -0.50284  -1.26702
O    -2.49456  -1.63596  -1.70761
O    -3.41304   0.40930  -1.83120
C    -3.98000   0.06915  -3.10323
C     0.22171  -0.71404  -0.09522
H     6.83108   0.21006   1.63343
H     6.97156  -1.55991   1.43502
H     6.66546  -0.51659   0.01692
H     4.69350  -1.70871   1.71928
H    -0.13055  -1.61828   1.97811
H     1.82992   1.89362   1.11445
H     1.36401   0.72065  -1.32757
H    -0.73061   2.98297  -0.37540
H     1.04164   3.49851  -4.15436
H    -0.32749   2.42977  -4.62646
H     1.18802   1.71172  -3.99025
H    -3.08453   1.80948   1.77760
H    -2.02097   3.12126   1.19675
H    -1.34759   1.79520   2.20202
H    -2.69618  -2.48203   0.02915
H    -3.75790  -2.69310   2.76914
H    -3.35795  -4.02263   1.64511
H    -2.07716  -3.26296   2.63338
H    -3.18491  -0.16061  -3.82564
H    -4.54326   0.95207  -3.42704
H    -4.65228  -0.79551  -3.00627
H    -0.04869  -1.50404  -0.79216
