29
Generated by autodE on: 2022-07-02. E = -762.141642 Ha
C     4.08392   0.43730   0.47190
N     3.34337   0.21034  -0.75939
C     2.01935   0.38948  -0.91855
O     1.39414   0.01125  -1.91319
C     1.36045   1.23301   0.12876
N     0.10721   1.14541   0.46523
C    -0.47535   2.26828   1.23633
C    -0.65071  -0.03880   0.29025
C     0.02751  -1.26768   0.61885
C    -0.73403  -2.57214   0.71944
O     1.25330  -1.29374   0.85585
C    -2.03147   0.15859  -0.09205
O    -2.51164   1.23902  -0.43344
O    -2.78500  -0.96281  -0.08375
C    -4.13892  -0.82431  -0.51889
H     4.12042   1.50512   0.73688
H     3.64520  -0.12027   1.31320
H     5.11428   0.09293   0.32203
H     3.78275  -0.35107  -1.48506
H     1.91615   2.08360   0.52926
H    -0.99449   2.94729   0.55192
H    -1.18336   1.87065   1.97095
H     0.33635   2.80101   1.74552
H    -1.13362  -2.85803  -0.26471
H    -1.58756  -2.50228   1.40631
H    -0.03246  -3.34246   1.06548
H    -4.69444  -0.13473   0.13402
H    -4.18484  -0.45356  -1.55374
H    -4.57751  -1.82802  -0.46140
