50
Generated by autodE on: 2022-06-25. E = -1391.039963 Ha
C     1.41559   5.02920  -1.10509
O     1.37136   3.87016  -0.24783
C     0.34750   3.04977  -0.39801
O    -0.55888   3.18216  -1.18649
C     0.45762   1.82389   0.54007
C     0.86357   2.25692   1.88554
N     1.17484   2.59036   2.95065
O    -0.80437   1.19279   0.64255
C    -0.95272   0.17662  -0.35911
C    -2.07790   0.61023  -1.31174
O    -2.07120   0.40923  -2.50793
O    -3.07846   1.18385  -0.65735
C    -4.19433   1.63149  -1.44479
C    -1.34622  -1.14238   0.29314
C    -1.34326  -1.28124   1.68600
C    -1.65105  -2.51200   2.27187
C    -1.97144  -3.61261   1.47259
C    -1.99907  -3.47094   0.08183
C    -1.69339  -2.24205  -0.50629
C     0.43945   0.14075  -1.10953
C     1.39705   0.75600  -0.07203
C     1.88608  -0.24812   0.98557
C     2.11582  -1.61860   0.40498
C     2.82531  -2.66443   1.15558
N     3.24663  -2.33582   2.40354
O     3.03925  -3.80651   0.70028
C     1.62648  -1.94692  -0.82440
N     0.87919  -1.13366  -1.60902
C     0.58312  -1.48161  -2.98969
H     1.46757   4.71446  -2.15648
H     0.52291   5.64868  -0.94306
H     2.32119   5.57575  -0.82118
H    -4.64739   0.78640  -1.98212
H    -4.91000   2.06104  -0.73493
H    -3.86518   2.39433  -2.16472
H    -1.09373  -0.42453   2.31095
H    -1.63785  -2.60892   3.35997
H    -2.20645  -4.57572   1.93160
H    -2.25955  -4.32170  -0.55192
H    -1.72780  -2.14560  -1.59148
H     0.36010   0.82032  -1.96580
H     2.24761   1.22644  -0.58009
H     1.16266  -0.30661   1.81571
H     2.81558   0.15182   1.42082
H     3.72240  -3.04189   2.95407
H     3.07127  -1.43202   2.82335
H     1.83586  -2.93437  -1.23985
H     1.24197  -0.93965  -3.69121
H    -0.45649  -1.22840  -3.23352
H     0.73266  -2.55993  -3.13116
