30
Generated by autodE on: 2022-07-27. E = -933.235547 Ha
C    -1.01931   1.17504  -3.30973
O    -0.61081   0.24038  -2.29219
C    -0.83972   0.59383  -1.04290
O    -1.42323   1.59086  -0.67736
C    -0.41463  -0.45215  -0.04231
O     0.15687  -0.08496   1.05397
C     0.77242   1.09429   1.37826
C     0.98541   1.25805   2.75557
N     1.14830   1.41450   3.90348
C     1.42713   1.87965   0.37051
O     1.44137   1.59920  -0.82672
O     2.06340   2.94525   0.88781
C     2.80569   3.75626  -0.03177
C    -0.80410  -1.83726  -0.13130
C    -0.31918  -2.76128   0.82749
C    -0.70433  -4.09373   0.76929
C    -1.57468  -4.53178  -0.23890
C    -2.05942  -3.62826  -1.19126
C    -1.67998  -2.29068  -1.14729
H    -2.10381   1.34279  -3.25712
H    -0.48535   2.12541  -3.17166
H    -0.74635   0.71361  -4.26463
H     3.61506   3.17508  -0.49751
H     3.22568   4.57591   0.56274
H     2.14576   4.15652  -0.81529
H     0.36768  -2.42030   1.60241
H    -0.32149  -4.80132   1.50733
H    -1.87208  -5.58176  -0.28322
H    -2.73979  -3.96969  -1.97367
H    -2.06936  -1.59730  -1.89120
