30
Generated by autodE on: 2022-06-25. E = -933.235347 Ha
C    -1.01597   3.79463   0.00212
O    -0.65415   2.43196   0.30624
C    -1.26507   1.48124  -0.38164
O    -2.15385   1.64297  -1.18598
C    -0.72700   0.12479  -0.00142
O     0.53183  -0.12698  -0.06847
C     1.62504   0.51751  -0.53303
C     1.55627   1.71546  -1.25884
N     1.51909   2.70024  -1.88898
C     2.88927  -0.16495  -0.36120
O     3.95315   0.28754  -0.76654
O     2.77872  -1.33624   0.28965
C     3.99377  -2.06815   0.49277
C    -1.58380  -0.93866   0.46255
C    -1.02957  -2.20667   0.76512
C    -1.84664  -3.23135   1.22318
C    -3.22311  -3.01752   1.38638
C    -3.77937  -1.76829   1.09108
C    -2.97244  -0.73069   0.63331
H    -0.80139   4.00809  -1.05354
H    -0.39703   4.41870   0.65500
H    -2.08288   3.95218   0.21088
H     4.45508  -2.33163  -0.47031
H     3.71016  -2.97727   1.03572
H     4.70697  -1.47936   1.08801
H     0.04064  -2.36906   0.63433
H    -1.41350  -4.20688   1.45313
H    -3.86165  -3.82822   1.74403
H    -4.85052  -1.60108   1.21960
H    -3.41805   0.23704   0.40485
