50
Generated by autodE on: 2022-06-25. E = -1390.954046 Ha. Imaginary frequency = -314.6 cm-1
C     1.52794   4.66939  -0.08908
O     1.27529   3.43647   0.59806
C     0.21113   2.72486   0.18662
O    -0.54072   3.09344  -0.70334
C     0.13370   1.45091   0.88342
C     0.85009   1.25574   2.09027
N     1.45810   1.07615   3.06973
O    -0.91810   0.60755   0.77246
C    -1.45646   0.10725  -0.34054
C    -2.08183   1.06890  -1.33582
O    -3.05205   1.72682  -1.02879
O    -1.54975   1.02223  -2.54763
C    -2.12764   1.89310  -3.53516
C    -2.12610  -1.17033  -0.14916
C    -1.80136  -1.97104   0.96664
C    -2.36799  -3.23557   1.10867
C    -3.25438  -3.72482   0.14285
C    -3.58391  -2.93514  -0.96634
C    -3.02771  -1.66797  -1.11470
C     0.58016  -0.64800  -1.29454
C     1.37188   0.44767  -0.97842
C     2.66888   0.27256  -0.23408
C     2.60854  -0.96851   0.63133
C     3.51456  -1.18290   1.77644
N     4.50269  -0.27126   1.94014
O     3.41445  -2.16091   2.54017
C     1.74261  -1.96507   0.31549
N     0.83331  -1.88299  -0.71123
C     0.27202  -3.10191  -1.27896
H     1.71019   4.48442  -1.15771
H     0.67750   5.35683   0.02440
H     2.42292   5.09543   0.37868
H    -3.19517   1.66748  -3.66575
H    -2.00239   2.93974  -3.22445
H    -1.57791   1.70019  -4.46287
H    -1.10158  -1.59422   1.71261
H    -2.10928  -3.84898   1.97450
H    -3.69065  -4.71999   0.25395
H    -4.27757  -3.31268  -1.72058
H    -3.28264  -1.07001  -1.99159
H    -0.03448  -0.65728  -2.19084
H     1.23864   1.33867  -1.59128
H     2.89227   1.17630   0.35383
H     3.49548   0.19721  -0.97238
H     5.11337  -0.35976   2.74513
H     4.57297   0.56349   1.37230
H     1.74286  -2.90310   0.87343
H     0.05981  -3.82492  -0.48045
H    -0.66305  -2.87350  -1.80171
H     0.97364  -3.56298  -1.99547
