46
Generated by autodE on: 2022-06-20. E = -1055.794897 Ha. Imaginary frequency = -240.6 cm-1
C     0.02268  -1.90061  -2.48145
C     0.10669  -2.37380  -1.21991
C    -0.29511  -3.78806  -0.88516
C     0.61431  -1.57612  -0.09790
C     1.35432  -0.39184  -0.25097
C     2.18104   0.11658   0.82162
C     3.26608   0.92220   0.67882
C     4.04771   1.35866   1.88145
C     3.79867   1.40745  -0.63776
C    -0.53388   1.17366  -0.46517
C    -0.62077   1.53914  -1.90023
C    -1.86253   1.13487  -2.65104
O     0.29878   2.14034  -2.44727
C    -0.04457   2.11066   0.56341
C     0.91385   3.20014   0.18433
O    -0.48644   2.01968   1.70622
O    -1.48054   0.27860  -0.12362
C    -1.43193  -0.65758   0.81226
C    -0.86275  -0.52038   2.11476
N    -0.41723  -0.60017   3.18809
C    -2.45211  -1.73098   0.67167
C    -3.25123  -1.75911  -0.59507
O    -2.58118  -2.55359   1.57109
H    -0.35770  -2.53285  -3.28767
H     0.34180  -0.89406  -2.75613
H    -0.72749  -4.30094  -1.75538
H     0.58470  -4.36083  -0.54538
H    -1.02202  -3.82010  -0.06006
H     0.71477  -2.10589   0.85193
H     1.56809  -0.05328  -1.26379
H     1.92179  -0.21486   1.83083
H     5.11250   1.08627   1.77601
H     4.01987   2.45929   1.97126
H     3.65923   0.92167   2.81230
H     4.75748   0.90386  -0.85560
H     3.12151   1.23364  -1.48323
H     4.02214   2.48529  -0.58610
H    -2.75833   1.53749  -2.15288
H    -1.79506   1.51853  -3.67680
H    -1.96668   0.04078  -2.67060
H     1.66704   2.86796  -0.53319
H     1.37936   3.58911   1.09905
H     0.34246   4.01213  -0.29756
H    -2.57681  -1.87191  -1.45902
H    -3.95748  -2.59731  -0.55578
H    -3.79141  -0.81010  -0.73218
