57
Generated by autodE on: 2022-06-29. E = -1341.446326 Ha
C    -1.17787  -0.87273  -3.49815
N    -1.42405  -0.66785  -2.08712
C    -0.62423   0.08762  -1.32393
O     0.26793   0.80879  -1.78333
C    -0.99284   0.07484   0.18133
C    -2.10275   1.12696   0.30795
C    -1.90122   2.41884  -0.20843
C    -2.88358   3.40193  -0.08281
C    -4.09480   3.11296   0.55324
C    -4.31180   1.82851   1.05528
C    -3.32593   0.84403   0.93190
N    -1.44724  -1.25417   0.55016
C    -0.27285  -2.10914   0.80629
C     0.20957  -2.76180  -0.50515
C    -0.70748  -3.23607   1.74146
C     0.82983  -1.11124   1.44397
C     1.05887  -1.37574   2.94650
C     2.18239  -1.41623   0.80016
O     2.73095  -2.49346   1.01282
C     2.83837  -0.44939  -0.09023
O     3.88852  -0.96234  -0.76994
C     4.12529  -0.51728  -2.11135
C     2.45650   0.86169  -0.12384
O     3.25791   1.74755  -0.74061
C     2.73653   2.85219  -1.49641
C     1.26419   1.33576   0.60859
O     1.12628   2.54096   0.79282
C     0.25244   0.33816   1.16858
C    -0.30975   0.97528   2.45439
H    -2.07724  -1.29190  -3.96720
H    -0.93546   0.08288  -3.98266
H    -0.33621  -1.56768  -3.66567
H    -2.01108  -1.32275  -1.57512
H    -0.96665   2.66181  -0.71114
H    -2.70038   4.39980  -0.48828
H    -4.86496   3.88161   0.65085
H    -5.25557   1.58264   1.54772
H    -3.53749  -0.14771   1.33177
H    -1.97537  -1.19070   1.41853
H     0.94025  -3.54980  -0.28804
H    -0.64803  -3.21760  -1.01874
H     0.69134  -2.06024  -1.19947
H     0.14506  -3.87501   2.00602
H    -1.15920  -2.85320   2.66729
H    -1.45576  -3.86112   1.23075
H     1.48232  -2.37682   3.08195
H     1.77666  -0.65028   3.35537
H     0.13424  -1.31117   3.52825
H     4.63109  -1.34818  -2.62238
H     4.76718   0.37379  -2.13235
H     3.17476  -0.29721  -2.62186
H     3.47954   3.05145  -2.28102
H     1.77597   2.59451  -1.95769
H     2.62342   3.74006  -0.86118
H    -1.10759   0.35880   2.88698
H    -0.72004   1.96578   2.23972
H     0.47968   1.09990   3.20535
