31
Generated by autodE on: 2022-06-29. E = -651.950462 Ha
C    -0.75525   3.98909   0.15135
N    -0.32612   2.63623  -0.12724
C    -1.13534   1.56819   0.13678
O    -2.32644   1.76490   0.50666
C    -0.60941   0.22536   0.01009
N    -1.54177  -0.70577   0.44569
C    -1.67332  -2.00333   0.30252
C    -2.80859  -2.67947   0.99703
C    -0.74795  -2.80290  -0.54279
C     0.80049  -0.11614  -0.19509
C     1.56525   0.47142  -1.23011
C     2.92369   0.18647  -1.38124
C     3.56356  -0.70827  -0.51726
C     2.82319  -1.30589   0.50974
C     1.46998  -1.01149   0.67374
H    -1.72656   4.19593  -0.32209
H    -0.01474   4.68972  -0.25698
H    -0.86372   4.19097   1.23286
H     0.66396   2.46768  -0.26127
H    -2.32458  -0.21674   0.90326
H    -3.45554  -1.96055   1.52100
H    -3.41540  -3.25450   0.27732
H    -2.42839  -3.40516   1.73830
H    -1.25638  -3.71675  -0.88209
H    -0.40977  -2.22445  -1.41609
H     0.16042  -3.11047   0.00607
H     1.07862   1.14159  -1.94128
H     3.48256   0.65626  -2.19486
H     4.62416  -0.93805  -0.64220
H     3.30879  -2.00016   1.20060
H     0.92094  -1.46456   1.50166
