31
Generated by autodE on: 2022-07-27. E = -651.945226 Ha
C     1.63541  -1.26771  -3.33428
N     0.81553  -1.21268  -2.14381
C     0.70145  -0.06161  -1.40923
O     1.13599   1.00873  -1.90024
C     0.03298  -0.13546  -0.12425
N    -0.09886  -1.36738   0.53503
C     0.79039  -2.30797   0.76989
C     2.21441  -2.12207   0.40536
C     0.33491  -3.57958   1.39369
C    -0.67202   0.97620   0.48962
C    -0.97779   2.17906  -0.20528
C    -1.69639   3.20508   0.40155
C    -2.15274   3.09005   1.72275
C    -1.85995   1.91966   2.42811
C    -1.12679   0.89063   1.83371
H     2.66624  -0.92818  -3.13620
H     1.23101  -0.63911  -4.14541
H     1.67469  -2.30546  -3.69027
H     0.43216  -2.07930  -1.78960
H    -1.01831  -1.54216   0.95470
H     2.85219  -2.70132   1.08841
H     2.48247  -1.05295   0.43560
H     2.41791  -2.47211  -0.62185
H     0.98173  -3.83452   2.24841
H    -0.71232  -3.52068   1.72503
H     0.42358  -4.40943   0.66996
H    -0.63906   2.29360  -1.23324
H    -1.91244   4.11169  -0.17093
H    -2.71641   3.89976   2.19167
H    -2.19042   1.80742   3.46451
H    -0.88359   0.01266   2.43573
