26
Generated by autodE on: 2022-06-29. E = -689.460869 Ha
C     2.99023  -0.50706   1.17080
O     2.36811   0.01639  -0.00762
C     1.00338  -0.02888  -0.03349
C     0.21925   1.07996   0.08246
O     0.57567   2.34905   0.27944
C     1.93524   2.74945   0.48061
C    -1.27682   0.95320  -0.03228
O    -1.96286   1.96123   0.06745
C    -1.88421  -0.38501  -0.24731
C    -3.37703  -0.46516  -0.33481
C    -1.09459  -1.48218  -0.35543
C    -1.66239  -2.84960  -0.56917
C     0.39218  -1.35203  -0.28336
O     1.11672  -2.33334  -0.44030
H     4.07319  -0.39219   1.03007
H     2.75115  -1.57148   1.31181
H     2.67543   0.06144   2.06168
H     1.89559   3.83443   0.64015
H     2.54839   2.52440  -0.40146
H     2.36094   2.26343   1.37008
H    -3.83538   0.52464  -0.22529
H    -3.77808  -1.12944   0.44836
H    -3.68840  -0.89458  -1.30132
H    -2.34907  -3.11774   0.25072
H    -2.25552  -2.88426  -1.49817
H    -0.86913  -3.60374  -0.62895
