57
Generated by autodE on: 2022-06-29. E = -1341.407969 Ha. Imaginary frequency = -267.6 cm-1
C    -1.20951  -0.53277  -3.70938
N    -1.53638  -0.46855  -2.29834
C    -0.84107   0.32323  -1.45586
O    -0.03435   1.15977  -1.86937
C    -1.23131   0.16753   0.00441
C    -2.23454   1.16881   0.43167
C    -2.13132   2.49633  -0.03755
C    -3.02900   3.47716   0.38095
C    -4.05887   3.16352   1.27367
C    -4.17858   1.85159   1.74064
C    -3.27937   0.86750   1.32791
N    -1.40149  -1.13662   0.43456
C    -0.45081  -2.10426   0.37787
C     0.39807  -2.28884  -0.84617
C    -0.73615  -3.36146   1.13494
C     0.89436  -0.81037   1.81112
C     0.39029  -1.32911   3.13564
C     2.10126  -1.43024   1.29924
O     2.55585  -2.50492   1.72227
C     2.83352  -0.74683   0.18150
O     3.75932  -1.54322  -0.37929
C     4.21460  -1.30164  -1.71307
C     2.59011   0.56065  -0.11549
O     3.45107   1.26815  -0.90539
C     2.95876   1.87958  -2.10019
C     1.49161   1.28692   0.56167
O     1.42789   2.51749   0.45726
C     0.55025   0.52748   1.42270
C    -0.14700   1.39094   2.44662
H    -0.19201  -0.92892  -3.86800
H    -1.26169   0.46577  -4.16713
H    -1.92858  -1.19184  -4.21093
H    -2.13583  -1.18628  -1.90528
H    -1.32359   2.76053  -0.71847
H    -2.91961   4.49783   0.00683
H    -4.76178   3.93276   1.60101
H    -4.98061   1.58590   2.43318
H    -3.41804  -0.14265   1.71724
H    -2.01133  -1.23982   1.24424
H     1.22991  -2.96565  -0.61508
H     0.81018  -1.36163  -1.25426
H    -0.21111  -2.76776  -1.63188
H     0.20955  -3.79739   1.48937
H    -1.40564  -3.19784   1.99004
H    -1.20167  -4.10251   0.46149
H    -0.70546  -1.27358   3.21024
H     0.69886  -2.36746   3.29839
H     0.79571  -0.72738   3.96760
H     3.36909  -1.04932  -2.37171
H     4.96051  -0.49716  -1.74691
H     4.66997  -2.24332  -2.04772
H     2.23617   2.67505  -1.87722
H     3.83507   2.30958  -2.60396
H     2.48777   1.13332  -2.75827
H    -1.05080   0.91567   2.84566
H     0.53146   1.57410   3.29858
H    -0.42460   2.36343   2.02821
