39
Generated by autodE on: 2022-06-18. E = -939.086026 Ha
C    -1.32663   2.30667   2.45822
O    -1.42898   1.11559   1.66119
C    -1.03395   1.20466   0.39314
O    -0.65541   2.22797  -0.13073
C    -1.13793  -0.17063  -0.29716
C    -2.62754  -0.55905  -0.26491
C    -2.99688  -1.94699   0.14426
O    -3.44310   0.29224  -0.56988
O    -0.37522  -1.14228   0.44404
N     0.87594  -1.32720  -0.21075
C     1.87299  -0.45242   0.29076
C     1.71983   0.17399   1.54095
C     2.73001   0.99569   2.04513
C     3.91335   1.19865   1.33015
C     4.07788   0.55241   0.10071
C     3.07597  -0.26943  -0.41751
C     0.53773  -1.28895  -1.64291
C     0.09137  -2.65703  -2.13615
C    -0.51540  -0.15387  -1.72327
C    -1.49022  -0.22322  -2.89117
H    -0.27797   2.63328   2.51297
H    -1.69374   2.03509   3.45418
H    -1.94268   3.10861   2.02775
H    -2.62263  -2.13914   1.16210
H    -4.08748  -2.06265   0.10834
H    -2.51265  -2.68163  -0.51641
H     0.80897   0.01638   2.11350
H     2.58290   1.48052   3.01350
H     4.69986   1.84353   1.72759
H     5.00061   0.68541  -0.46946
H     3.23997  -0.77672  -1.36854
H     1.42914  -0.98430  -2.20173
H    -0.79117  -3.02026  -1.59166
H    -0.15323  -2.62215  -3.20725
H     0.90520  -3.38374  -1.99583
H     0.03536   0.79248  -1.79615
H    -2.11489  -1.12774  -2.86764
H    -0.93291  -0.21799  -3.83997
H    -2.15806   0.64965  -2.88538
