27
Generated by autodE on: 2022-06-18. E = -781.691080 Ha
C    -2.31376  -3.08773  -0.57309
O    -1.58831  -1.88665  -0.28381
C    -2.21710  -0.98445   0.49153
O    -3.34016  -1.16338   0.92657
C    -1.38983   0.21288   0.74196
O    -0.20321   0.10799   0.15316
N     0.75829   0.97837   0.16935
C     1.83987   0.52711  -0.56133
C     1.89933  -0.70702  -1.25325
C     3.05162  -1.03684  -1.95400
C     4.14943  -0.16104  -1.97907
C     4.09143   1.05912  -1.29524
C     2.94492   1.40756  -0.58856
C    -1.84307   1.35494   1.54967
C    -0.91678   2.51180   1.81291
O    -2.98418   1.35651   2.01379
H    -2.55216  -3.62990   0.35374
H    -3.24624  -2.85824  -1.10933
H    -1.65324  -3.69233  -1.20528
H     1.04517  -1.38317  -1.23127
H     3.10234  -1.98688  -2.49029
H     5.04952  -0.43358  -2.53421
H     4.94481   1.73995  -1.31471
H     2.87677   2.35334  -0.04839
H     0.01541   2.17440   2.28968
H    -0.62245   3.00204   0.87297
H    -1.44411   3.22244   2.46301
