39
Generated by autodE on: 2022-06-18. E = -938.974193 Ha. Imaginary frequency = -259.1 cm-1
C    -0.66078   2.88772   1.96196
O    -1.09602   1.57832   1.55326
C    -0.66358   1.14713   0.37212
O     0.03170   1.79559  -0.37546
C    -1.20834  -0.24854   0.11685
C    -2.66799  -0.42470   0.14579
C    -3.21439  -1.81069   0.32193
O    -3.37914   0.56807  -0.00019
O    -0.51282  -1.35970   0.22628
N     0.78940  -1.53685  -0.06256
C     1.67425  -0.63243   0.52707
C     1.47267  -0.09400   1.81721
C     2.44494   0.72291   2.39325
C     3.63520   1.00547   1.71484
C     3.85469   0.43834   0.45285
C     2.89350  -0.37963  -0.13584
C     0.37244  -0.64041  -2.41833
C     0.83184  -1.93401  -3.02155
C    -0.93689  -0.23714  -2.38836
C    -2.07020  -1.07881  -2.89821
H     0.43631   2.91391   2.02712
H    -1.10915   3.05716   2.94699
H    -1.00987   3.64257   1.24361
H    -3.00323  -2.15853   1.34682
H    -4.29891  -1.79483   0.15549
H    -2.73135  -2.51971  -0.36534
H     0.56621  -0.33384   2.37302
H     2.27205   1.13218   3.39148
H     4.39049   1.64959   2.16970
H     4.78608   0.63935  -0.08201
H     3.06515  -0.81958  -1.11935
H     1.13316   0.10584  -2.18096
H     0.18901  -2.77770  -2.72806
H     0.79406  -1.87269  -4.12534
H     1.86523  -2.17280  -2.73538
H    -1.14252   0.81798  -2.20507
H    -1.98965  -2.12714  -2.57175
H    -2.06936  -1.09048  -4.00365
H    -3.04586  -0.68602  -2.57865
