20
Generated by autodE on: 2022-06-20. E = -457.715323 Ha
C    -2.81326   1.30759   0.68439
N    -1.76460   0.47173   0.12346
C    -2.11124  -0.66716  -0.61426
C    -1.19780  -1.52922  -1.08810
C     0.28615  -1.35870  -0.87437
C     0.56343  -0.11859  -0.04000
C     1.93557   0.26516   0.32967
N     2.92405  -0.54999  -0.11730
O     2.20760   1.27273   1.01396
C    -0.44661   0.68780   0.39287
H    -3.38171   0.77317   1.46439
H    -2.36371   2.20314   1.13122
H    -3.51742   1.62422  -0.10050
H    -3.18238  -0.80004  -0.77701
H    -1.54553  -2.39266  -1.65987
H     0.80748  -1.30282  -1.85236
H     0.70603  -2.26395  -0.39020
H     3.88463  -0.31879   0.11131
H     2.74528  -1.37017  -0.68236
H    -0.21913   1.57171   0.99086
