26
Generated by autodE on: 2022-06-20. E = -648.494680 Ha
C     2.31862  -2.48318  -1.02209
O     1.29312  -1.56845  -0.62868
C     1.68675  -0.31046  -0.32685
O     2.87442   0.02514  -0.39842
C     0.58401   0.53084   0.06439
C    -0.80315  -0.00729   0.10471
C    -1.23167  -0.78255   1.19523
C    -2.52693  -1.30415   1.23254
C    -3.41247  -1.05705   0.17824
C    -2.99484  -0.29180  -0.91518
C    -1.69746   0.22573  -0.95289
N     0.82423   1.83310   0.40540
C    -0.33589   2.64811   0.83309
N     1.94074   2.46438   0.41188
H     1.81281  -3.43577  -1.22089
H     2.83048  -2.13321  -1.93109
H     3.05982  -2.61224  -0.21914
H    -0.53820  -0.97379   2.01740
H    -2.84696  -1.90392   2.08795
H    -4.42650  -1.46295   0.20769
H    -3.68042  -0.10018  -1.74408
H    -1.36829   0.81833  -1.80977
H    -1.02127   2.78234  -0.01164
H    -0.86264   2.14008   1.64858
H     0.06054   3.61151   1.16413
H     2.65530   1.79202   0.09586
