34
Generated by autodE on: 2022-06-03. E = -824.312250 Ha
C     5.58017   0.17233  -0.47133
O     4.26543   0.72415  -0.44634
C     3.24605  -0.14868  -0.21081
O     3.44712  -1.35871  -0.02679
C     1.97359   0.48199  -0.20635
N     0.90704  -0.33926  -0.01673
C    -0.40093  -0.12992   0.04961
C    -0.93857   1.24448   0.02934
C    -2.02107   1.56515  -0.81177
C    -2.54939   2.85664  -0.82806
C    -2.01339   3.84669   0.00171
C    -0.94352   3.53664   0.84831
C    -0.40651   2.24907   0.86019
C    -1.28697  -1.29775   0.12806
C    -0.90024  -2.55816  -0.37966
C    -1.74154  -3.66397  -0.26292
C    -2.99376  -3.54025   0.34860
C    -3.39559  -2.29517   0.84450
C    -2.55583  -1.18747   0.73749
H     6.26095   1.01106  -0.66419
H     5.68266  -0.57873  -1.27016
H     5.83412  -0.29735   0.49172
H     1.83342   1.54436  -0.37515
H     1.20972  -1.31635   0.08169
H    -2.44455   0.79528  -1.45948
H    -3.38394   3.09113  -1.49287
H    -2.42910   4.85686  -0.00951
H    -0.52654   4.30180   1.50723
H     0.42146   2.01622   1.53223
H     0.05365  -2.67492  -0.89956
H    -1.42226  -4.62678  -0.66865
H    -3.65427  -4.40623   0.43152
H    -4.36996  -2.18613   1.32657
H    -2.87647  -0.22792   1.14515
