15
Generated by autodE on: 2022-06-03. E = -492.081476 Ha
N     3.03635  -0.96756   0.69834
C     1.95555  -0.70307   0.35396
C     0.64400  -0.41485  -0.07524
C    -0.01593   0.76542  -0.08099
C     0.42315   2.03638   0.34234
N     0.76262   3.09722   0.68299
C    -1.44619   0.40838  -0.59754
C    -2.11561  -0.41434   0.51987
C    -1.46411  -1.58028   0.52626
C    -0.40728  -1.45064  -0.58745
O    -1.09605  -0.62072  -1.52759
H    -2.00725   1.22853  -1.05423
H    -2.90469  -0.04649   1.17388
H    -1.56740  -2.43941   1.18724
H    -0.00115  -2.36200  -1.03517
