49
Generated by autodE on: 2022-06-03. E = -1316.374548 Ha. Imaginary frequency = -332.8 cm-1
C     1.36560  -1.51899   4.18550
O     1.27343  -1.39721   2.76185
C     2.03855  -0.46051   2.17947
O     2.86689   0.19575   2.79693
C     1.82296  -0.32649   0.73852
N     0.74769  -0.84453   0.06520
C    -0.57369  -0.59858   0.21948
C    -1.26138  -0.48002   1.54021
C    -0.90199   0.40190   2.57809
C    -1.59339   0.41048   3.78850
C    -2.66384  -0.46278   4.00382
C    -3.03722  -1.34416   2.98714
C    -2.34954  -1.34716   1.77214
C    -1.42368  -0.99719  -0.93162
C    -2.55173  -0.21917  -1.25577
C    -3.36081  -0.56061  -2.33681
C    -3.06574  -1.69022  -3.11075
C    -1.95578  -2.47434  -2.79075
C    -1.14148  -2.13411  -1.70730
C    -0.05510   1.90572   0.02738
C     0.06900   2.45616  -1.39907
O     1.17805   3.37367  -1.25680
C     2.07925   2.40784  -0.68471
C     2.04072   1.34619  -1.81025
C     3.10342   0.51802  -2.22537
N     3.99419  -0.16015  -2.54833
C     0.76458   1.38217  -2.26827
C     0.19266   0.63246  -3.31813
N    -0.25901   0.06136  -4.22642
C     1.24435   1.86820   0.50244
H     0.58814  -2.23417   4.47832
H     2.35716  -1.89647   4.47619
H     1.18771  -0.54952   4.67153
H     2.75842  -0.38349   0.18099
H     0.98003  -1.06761  -0.90157
H    -0.07698   1.09784   2.46200
H    -1.28795   1.10861   4.57099
H    -3.20215  -0.45352   4.95427
H    -3.86826  -2.03755   3.13573
H    -2.65267  -2.04852   0.99432
H    -2.78073   0.66475  -0.65780
H    -4.22501   0.06097  -2.58243
H    -3.70164  -1.95666  -3.95803
H    -1.72230  -3.36307  -3.38155
H    -0.29253  -2.77229  -1.45233
H    -0.98035   1.98808   0.58604
H    -0.81452   2.92548  -1.83969
H     3.06319   2.82785  -0.45809
H     1.58493   2.03212   1.52311
