18
Generated by autodE on: 2022-06-17. E = -235.968069 Ha
C    -1.69123   0.26763   0.97643
C    -0.63442  -0.23560   0.02277
C    -1.16581  -1.32757  -0.87449
C     0.63441   0.23564  -0.02279
C     1.16581   1.32758   0.87449
C     1.69123  -0.26765  -0.97641
H    -2.56230   0.65220   0.41595
H    -1.35002   1.06137   1.65157
H    -2.07372  -0.56211   1.59768
H    -2.02694  -0.95801  -1.45994
H    -1.55017  -2.16799  -0.26903
H    -0.43015  -1.73226  -1.57985
H     0.43041   1.73167   1.58045
H     1.54939   2.16841   0.26908
H     2.02751   0.95823   1.45924
H     2.07429   0.56215  -1.59720
H     1.34984  -1.06098  -1.65194
H     2.56198  -0.65287  -0.41583
