23
Generated by autodE on: 2022-06-17. E = -609.171915 Ha
C     5.13170  -0.07122  -0.23859
O     3.93096  -0.83998  -0.36912
C     2.77619  -0.19358  -0.12697
O     2.72040   0.99217   0.19193
C     1.62694  -1.05172  -0.29327
N     0.43777  -0.49453  -0.08864
N    -0.70722  -1.07956  -0.14666
C    -1.82800  -0.26593   0.01726
C    -3.04371  -0.93461   0.27237
C    -4.22455  -0.21929   0.45646
C    -4.22350   1.17885   0.38122
C    -3.02603   1.85007   0.10863
C    -1.83819   1.14365  -0.08040
H     5.95633  -0.75458  -0.47330
H     5.23990   0.31156   0.78722
H     5.13143   0.77483  -0.94193
H     1.68758  -2.10128  -0.57341
H     0.49907   0.51271   0.15252
H    -3.03217  -2.02472   0.33210
H    -5.15390  -0.75642   0.66072
H    -5.14942   1.74036   0.52293
H    -3.01684   2.93971   0.02729
H    -0.93287   1.70195  -0.33050
