23
Generated by autodE on: 2022-07-27. E = -609.171726 Ha
C    -4.99942  -0.36971  -1.21364
O    -3.70283  -0.96711  -1.31960
C    -2.68920  -0.30880  -0.72794
O    -2.83558   0.75092  -0.12230
C    -1.42895  -0.99334  -0.89114
N    -0.36333  -0.42005  -0.33982
N     0.84630  -0.85643  -0.38213
C     1.81733  -0.11259   0.28750
C     3.14219  -0.57294   0.13063
C     4.20499   0.08031   0.74996
C     3.97317   1.20882   1.54480
C     2.66232   1.67111   1.71139
C     1.59092   1.02440   1.09616
H    -5.00720   0.63029  -1.67233
H    -5.68477  -1.03502  -1.75200
H    -5.30550  -0.28630  -0.16011
H    -1.31286  -1.93053  -1.43143
H    -0.59142   0.46311   0.15212
H     3.31105  -1.45394  -0.49166
H     5.22216  -0.29409   0.61208
H     4.80423   1.72175   2.03350
H     2.46745   2.54712   2.33477
H     0.58614   1.41710   1.26849
