41
Generated by autodE on: 2022-06-17. E = -845.124208 Ha. Imaginary frequency = -367.5 cm-1
C    -4.89391   0.40240  -1.20442
O    -3.60587  -0.21490  -1.32648
C    -2.54854   0.52485  -0.95952
O    -2.64225   1.68289  -0.57504
C    -1.29815  -0.23233  -1.00927
N    -0.16553   0.50369  -0.90085
N     0.95090  -0.19172  -0.72466
C     2.08600   0.53986  -0.38522
C     3.30444  -0.17476  -0.35421
C     4.49196   0.44638   0.02398
C     4.50355   1.80471   0.36689
C     3.30691   2.52758   0.32476
C     2.10900   1.91070  -0.04147
C     0.19776  -1.42001   1.04328
C     0.77877  -0.54338   2.11903
C     0.97706  -2.66147   0.70926
C    -1.20696  -1.37867   0.81153
C    -1.90610  -2.63772   0.33967
C    -2.04735  -0.52240   1.74084
H    -4.95762   1.29375  -1.84523
H    -5.08700   0.68974  -0.16049
H    -5.62172  -0.34962  -1.53028
H    -1.24802  -1.11603  -1.64476
H    -0.28825   1.41447  -0.44343
H     3.29383  -1.22723  -0.64093
H     5.41990  -0.13074   0.04088
H     5.43561   2.29538   0.65573
H     3.30183   3.58979   0.58239
H     1.20058   2.51579  -0.05908
H     0.46212   0.50693   2.01986
H     1.87718  -0.56915   2.11443
H     0.44173  -0.87941   3.11804
H     2.05904  -2.47994   0.77609
H     0.75368  -3.03621  -0.29930
H     0.73671  -3.47451   1.42105
H    -1.99879  -3.36290   1.16910
H    -2.92194  -2.41107  -0.01635
H    -1.36917  -3.14128  -0.47596
H    -1.99095  -0.89980   2.77792
H    -1.72080   0.52729   1.76128
H    -3.10706  -0.54002   1.44576
