46
Generated by autodE on: 2022-06-22. E = -1139.618118 Ha
C     3.63493  -2.66535   0.28251
N     2.68017  -1.60094   0.52034
C     2.05204  -0.97627  -0.47937
O     2.22554  -1.25331  -1.67158
C     1.01551   0.11066  -0.09074
C     1.53707   0.98400   1.06908
O     1.91724   0.47563   2.13590
N     1.55802   2.29783   0.83534
C     1.86020   3.26101   1.87221
N     0.68638   0.91415  -1.26295
C    -0.68841   0.67256  -1.72774
C    -1.21294   1.88525  -2.50356
C    -0.73312  -0.49595  -2.64922
N    -0.73016  -1.38510  -3.39518
C    -1.42629   0.30492  -0.40438
C    -2.75570  -0.41566  -0.66943
N    -3.13183  -1.32322   0.24182
O    -3.44778  -0.12902  -1.65189
C    -1.72624   1.57296   0.43949
C    -1.69745   1.30273   1.91451
C    -1.17954   0.17402   2.43239
N    -0.65598  -0.85702   1.66516
C    -0.11242  -2.03123   2.32565
C    -0.36215  -0.59923   0.28614
H     4.54873  -2.29176  -0.20885
H     3.19703  -3.44220  -0.36217
H     3.91064  -3.11593   1.24403
H     2.54369  -1.21595   1.45612
H     1.16495   2.58587  -0.05897
H     2.78418   2.98215   2.39897
H     1.99214   4.25097   1.41839
H     1.04539   3.31435   2.61458
H     1.36098   0.75357  -2.01004
H    -2.24032   1.71128  -2.84366
H    -0.56891   2.06058  -3.37787
H    -1.18086   2.77941  -1.86893
H    -4.02590  -1.79156   0.12969
H    -2.53793  -1.53685   1.03979
H    -1.00091   2.36011   0.18744
H    -2.70600   1.97474   0.13561
H    -2.11291   2.05339   2.58889
H    -1.17890  -0.01218   3.50886
H     0.84741  -1.83082   2.83066
H    -0.82681  -2.39957   3.07787
H     0.04156  -2.82730   1.58477
H    -0.35587  -1.56633  -0.23677
