26
Generated by autodE on: 2022-06-22. E = -681.857649 Ha
C    -2.56375  -3.30322  -0.40861
N    -1.95597  -1.99131  -0.34615
C    -0.68050  -1.82197   0.04089
O     0.04624  -2.77093   0.40875
C    -0.13435  -0.44877   0.03340
N     1.18018  -0.44885   0.33480
C     2.19734   0.40912   0.29829
C     3.55153  -0.02018   0.78116
C     2.05325   1.70350  -0.25178
N     2.01620   2.76966  -0.72748
C    -0.97720   0.74162  -0.17462
O    -1.94498   0.71955  -0.96127
N    -0.71285   1.83159   0.57515
C    -1.36285   3.10340   0.32603
H    -2.10389  -3.93411  -1.18854
H    -3.63111  -3.18998  -0.63549
H    -2.46144  -3.83013   0.55211
H    -2.42392  -1.17537  -0.73963
H     1.43937  -1.41747   0.60531
H     3.54807  -1.09388   1.01910
H     4.32076   0.17097   0.01653
H     3.84005   0.53297   1.69055
H     0.04396   1.81000   1.24877
H    -1.16419   3.45690  -0.69885
H    -2.45320   3.02687   0.45631
H    -0.97283   3.84276   1.03580
