31
Generated by autodE on: 2022-06-14. E = -913.418939 Ha
C     5.24943  -0.74475   0.07211
O     3.84999  -1.04685  -0.01833
C     3.00329  -0.02611   0.14680
O     3.35065   1.12768   0.36618
C     1.60443  -0.42765   0.04034
C     1.23131  -1.76968  -0.15758
N     0.97197  -2.89806  -0.30950
N     0.72481   0.58954   0.22979
C    -0.58594   0.71980   0.19989
C    -1.02048   2.07847   0.61348
O    -0.23127   2.93766   0.97509
O    -2.33310   2.25296   0.53021
C    -2.84017   3.54097   0.91499
C    -1.51060  -0.32987  -0.24914
C    -1.33302  -0.93190  -1.50824
C    -2.22055  -1.91453  -1.94697
C    -3.28719  -2.31034  -1.13458
C    -3.47168  -1.71245   0.11728
C    -2.59465  -0.72208   0.55726
H     5.49328  -0.34144   1.06559
H     5.53706  -0.01683  -0.70025
H     5.77237  -1.69427  -0.08969
H     1.21585   1.46718   0.47866
H    -3.92689   3.48432   0.78823
H    -2.58629   3.75233   1.96345
H    -2.41871   4.32370   0.26835
H    -0.50402  -0.62087  -2.14686
H    -2.07744  -2.37311  -2.92777
H    -3.97820  -3.08362  -1.47795
H    -4.30398  -2.01983   0.75429
H    -2.73794  -0.25370   1.53212
