20
Generated by autodE on: 2022-06-14. E = -3904.266619 Ha
F    -2.51620   1.37702  -0.71313
C    -1.54971   0.41338  -0.68352
Br   -1.12745  -0.01288  -2.60337
C    -0.32554   0.85224  -0.04501
C     0.66718   0.71498   0.63627
C     1.57370   0.05902   1.54975
Cl    3.31038   0.38013   1.12672
Cl    1.27375   0.69491   3.23429
C     1.29089  -1.45450   1.49340
C    -0.19149  -1.86096   1.62211
C    -1.04920  -1.94690   0.32823
C    -2.07020  -0.83035   0.04058
H     1.69563  -1.81241   0.53405
H     1.88785  -1.91473   2.29440
H    -0.17627  -2.86902   2.06162
H    -0.68802  -1.22281   2.37115
H    -0.39741  -2.08789  -0.54994
H    -1.64211  -2.87019   0.39996
H    -2.90851  -1.22122  -0.55525
H    -2.49345  -0.45238   0.98678
