51
Generated by autodE on: 2022-06-14. E = -4817.666950 Ha. Imaginary frequency = -268.3 cm-1
C    -5.28693  -0.12193   5.07907
O    -4.25178  -0.60330   4.21168
C    -4.11352  -0.01140   3.03519
O    -4.86169   0.84403   2.60031
C    -2.97944  -0.53946   2.23844
C    -3.10425  -0.29334   0.83371
N    -3.17904  -0.13948  -0.31714
N    -2.20567  -1.62197   2.52946
C    -1.48009  -1.94943   3.61503
C    -0.50886  -3.04220   3.23007
O    -0.39537  -3.43370   2.08195
O     0.19068  -3.49772   4.25171
C     1.17820  -4.50198   3.97079
C    -1.95713  -1.92379   5.03540
C    -1.89265  -0.82530   5.90071
C    -2.39671  -0.91700   7.19899
C    -2.97962  -2.10320   7.65176
C    -3.05275  -3.20436   6.79372
C    -2.53922  -3.11694   5.49913
C    -0.31534   0.07468   3.45430
C    -1.15098   0.91525   3.06762
C    -1.50851   2.33512   3.01705
Cl   -2.71591   2.65924   4.36289
Cl   -2.30169   2.76255   1.43573
C    -0.29708   3.26762   3.18166
C     0.36692   3.36566   4.56039
C     0.90709   2.09713   5.23419
C     1.76037   1.19170   4.32548
C     1.05163  -0.10909   3.96298
F     1.06045  -0.94042   5.05009
Br    2.14006  -1.03462   2.53493
H    -5.09450   0.92447   5.35543
H    -5.25169  -0.76232   5.96690
H    -6.26659  -0.20001   4.58703
H    -1.77687  -2.05837   1.69981
H     1.64501  -4.73854   4.93310
H     1.92614  -4.10913   3.26826
H     0.70062  -5.39497   3.54388
H    -1.47470   0.11762   5.56446
H    -2.33948  -0.04657   7.85639
H    -3.37641  -2.16970   8.66737
H    -3.50962  -4.13746   7.13108
H    -2.60168  -3.98193   4.83538
H     0.42647   2.94905   2.41491
H    -0.63318   4.27554   2.89898
H    -0.32995   3.85833   5.25534
H     1.20586   4.06757   4.42060
H     1.52189   2.41735   6.08843
H     0.08378   1.51785   5.67757
H     2.69947   0.90046   4.81793
H     2.03327   1.71225   3.39818
