38
Generated by autodE on: 2022-07-27. E = -1009.387336 Ha
C     3.36517  -1.52391  -3.76972
N     2.93783  -0.85166  -2.56129
C     1.68381  -0.96637  -2.09481
O     0.81675  -1.67687  -2.64601
C     1.33742  -0.21843  -0.86447
N     0.04177  -0.36229  -0.55173
C    -0.82199   0.19855   0.31036
C    -0.47858   1.48643   0.92736
O     0.38125   2.24788   0.50756
O    -1.22639   1.76517   2.00366
C    -1.02058   3.04587   2.61241
C    -2.13013  -0.45645   0.45551
C    -2.22952  -1.85896   0.32856
C    -3.46806  -2.49953   0.39386
C    -4.63409  -1.75890   0.60303
C    -4.54954  -0.36786   0.73853
C    -3.31775   0.27875   0.66309
C     2.36823   0.40989  -0.00979
O     3.35143   0.98889  -0.50655
N     2.25396   0.23214   1.32077
C     3.11718   0.93450   2.25090
H     2.82447  -1.15348  -4.65703
H     4.43799  -1.34664  -3.91350
H     3.19243  -2.60893  -3.70051
H     3.53848  -0.17072  -2.09770
H    -0.36806  -1.07016  -1.18894
H     0.01183   3.13462   2.98118
H    -1.22100   3.85348   1.89355
H    -1.72750   3.09856   3.44843
H    -1.32654  -2.46017   0.20058
H    -3.51710  -3.58653   0.29613
H    -5.60260  -2.26035   0.66364
H    -5.45599   0.22210   0.89361
H    -3.27574   1.36415   0.74807
H     1.42708  -0.22323   1.69263
H     3.00405   2.02662   2.15107
H     4.17385   0.68167   2.07822
H     2.84591   0.64268   3.27268
