38
Generated by autodE on: 2022-06-06. E = -1009.393895 Ha
C     1.55926  -1.90443   2.53054
N     1.31996  -0.80575   1.61538
C     1.77006  -0.83669   0.34596
O     2.60298  -1.68947  -0.02188
C     1.30487   0.22285  -0.57049
N     0.09858   0.81355  -0.55486
C    -1.10223   0.58485  -0.01347
C    -2.11291   1.62635  -0.22697
O    -3.27722   1.54684   0.13305
O    -1.62191   2.70061  -0.87756
C    -2.54872   3.74421  -1.19865
C    -1.46874  -0.66444   0.67189
C    -2.15233  -0.64081   1.90069
C    -2.47035  -1.83272   2.55518
C    -2.12185  -3.06231   1.98921
C    -1.45650  -3.09543   0.75791
C    -1.13063  -1.90810   0.10535
C     2.19778   0.85608  -1.56955
O     1.81026   1.87409  -2.18128
N     3.40356   0.30065  -1.77051
C     4.33048   0.82836  -2.74864
H     2.62747  -1.99299   2.78237
H     1.22979  -2.85965   2.09141
H     0.99097  -1.72357   3.45070
H     0.63362  -0.11117   1.88520
H     0.13523   1.64819  -1.17157
H    -3.35017   3.36368  -1.84872
H    -2.98968   4.16201  -0.28204
H    -1.96880   4.51224  -1.72328
H    -2.41649   0.31670   2.35120
H    -2.98973  -1.79924   3.51562
H    -2.36747  -3.99340   2.50498
H    -1.18741  -4.05240   0.30521
H    -0.60311  -1.94532  -0.85002
H     3.57836  -0.58863  -1.30264
H     4.52312   1.89763  -2.57245
H     3.94697   0.72131  -3.77762
H     5.27864   0.28240  -2.67007
