14
Generated by autodE on: 2022-06-06. E = -399.800815 Ha
N     3.08308   0.32494  -1.10458
C     2.01464   0.06751  -0.71481
C     0.72550  -0.21524  -0.21715
C    -0.12915  -1.19530  -0.55920
C    -1.39581  -0.91390   0.27567
C    -2.03088   0.37294  -0.29829
C    -1.19211   1.35354   0.04738
C    -0.05836   0.65049   0.82287
O    -0.79051  -0.39448   1.47544
H    -0.00739  -1.98615  -1.29766
H    -2.05537  -1.76439   0.47505
H    -2.93521   0.40586  -0.90443
H    -1.22120   2.41576  -0.19170
H     0.54428   1.24479   1.51636
