38
Generated by autodE on: 2022-06-05. E = -1732.759271 Ha
C    -4.70055   0.89907   1.52095
N    -3.24947   0.94627   1.50784
C    -2.51853  -0.16673   1.38848
O    -2.98623  -1.30571   1.43452
C    -0.99575   0.03436   1.24801
N    -0.30778  -1.13256   1.79736
C     0.69471  -1.61929   0.85201
C     1.86605  -2.19841   1.52950
N     2.74744  -2.72737   2.06489
C     1.02009  -0.38781  -0.04733
C     1.99247   0.62065   0.66613
O     2.74494   1.31905  -0.00496
N     1.94118   0.66006   2.00256
C     2.75058   1.61120   2.74420
C     1.75841  -0.87215  -1.32462
F     1.88450   0.06060  -2.26267
F     1.14322  -1.92609  -1.88768
F     2.98815  -1.29382  -0.98187
C    -0.42851   0.25988  -0.20651
C    -0.39972   1.78298  -0.54427
F     0.19280   2.49392   0.42346
F    -1.64538   2.26940  -0.66036
F     0.24044   2.03411  -1.68543
C    -1.30668  -0.45592  -1.28234
F    -2.56271   0.00749  -1.28141
F    -1.38245  -1.77268  -1.05521
F    -0.82549  -0.27326  -2.51660
H    -5.09758   0.58807   0.54050
H    -5.08652   1.89655   1.76242
H    -5.05300   0.18475   2.27834
H    -2.79495   1.84768   1.40009
H    -0.73661   0.93294   1.82382
H    -1.00134  -1.86359   1.96851
H     0.30573  -2.43041   0.21977
H     1.26004   0.09219   2.50619
H     2.56865   1.46535   3.81540
H     3.82016   1.45995   2.53559
H     2.48689   2.64489   2.46934
