16
Generated by autodE on: 2022-07-27. E = -434.401041 Ha
C    -3.55358   0.64168  -0.91902
N    -2.21660   0.79266  -0.38680
C    -1.25800  -0.15404  -0.49399
O    -1.43329  -1.25720  -1.04942
C     0.03598   0.18615   0.09392
N     0.97070  -0.74280  -0.00855
C     2.25012  -0.79810   0.40043
C     2.84144   0.27056   1.08395
N     3.33248   1.16717   1.65681
H    -3.72661   1.31363  -1.77629
H    -4.30639   0.86609  -0.14775
H    -3.68802  -0.39353  -1.25436
H    -1.97303   1.66779   0.06706
H     0.25219   1.13152   0.59209
H     0.62281  -1.57907  -0.50238
H     2.80923  -1.70556   0.18018
