38
Generated by autodE on: 2022-06-05. E = -1732.707416 Ha. Imaginary frequency = -165.7 cm-1
C    -5.06299  -0.22785   0.32282
N    -3.77472  -0.13416   0.98041
C    -2.83569  -1.08206   0.82316
O    -3.02450  -2.17000   0.26472
C    -1.50009  -0.74535   1.37607
N    -0.60335  -1.71610   1.35977
C     0.70306  -1.58898   1.69316
C     1.03923  -0.70146   2.75119
N     1.30752   0.01480   3.62913
C     1.12377  -0.17430  -0.23392
C     2.41564   0.62989   0.01770
O     2.63519   1.59189  -0.71979
N     3.27675   0.22457   0.95485
C     4.54247   0.90655   1.15434
C     1.44780  -1.36593  -1.13737
F     1.47607  -1.00444  -2.43467
F     0.59084  -2.39607  -1.03704
F     2.66430  -1.86085  -0.85120
C    -0.08859   0.52057  -0.34217
C    -0.19294   1.90328   0.28208
F     0.66493   2.06278   1.30134
F    -1.42094   2.15804   0.78447
F     0.04434   2.88449  -0.61015
C    -1.03564   0.35122  -1.51521
F    -2.22380   0.95050  -1.30760
F    -1.29521  -0.92629  -1.81952
F    -0.52452   0.92142  -2.62914
H    -4.97559  -0.02240  -0.75789
H    -5.74949   0.50216   0.76895
H    -5.47862  -1.23640   0.45044
H    -3.48182   0.77177   1.33576
H    -1.35171   0.10177   2.04322
H    -0.86977  -2.52849   0.78885
H     1.32871  -2.47286   1.56129
H     3.10226  -0.62519   1.47495
H     5.20879   0.78140   0.28529
H     4.37774   1.98323   1.30847
H     5.03040   0.48826   2.04286
