35
Generated by autodE on: 2022-06-18. E = -1010.888427 Ha
C    -2.95537   0.65578  -1.91337
O    -2.91285   0.23469  -0.54374
C    -1.67590  -0.06019  -0.05757
C    -1.05008   0.73118   0.87212
O    -1.46393   1.85990   1.42456
C    -2.69407   2.51080   1.07004
C     0.23213   0.26375   1.49266
O     0.51943   0.59874   2.62296
C     1.12363  -0.63132   0.64863
C     2.32560  -1.11435   1.46743
C     1.63793   0.04868  -0.61505
C     2.16295   1.43591  -0.67503
C     2.82987   1.89186  -1.93688
O     2.01124   2.15147   0.30509
N     1.65077  -0.73466  -1.63377
O     1.06148  -1.92637  -1.30959
C     0.32436  -1.76054  -0.04210
C     0.26263  -3.09600   0.66307
C    -1.09218  -1.33341  -0.49446
O    -1.71244  -2.08258  -1.23741
H    -4.01201   0.83307  -2.15208
H    -2.38645   1.59062  -2.04604
H    -2.55316  -0.11891  -2.58250
H    -2.72148   3.41878   1.68463
H    -3.55381   1.87106   1.30411
H    -2.69815   2.78234   0.00576
H     2.94822  -1.79036   0.86642
H     2.93287  -0.25150   1.77184
H     1.99186  -1.63998   2.37209
H     3.69682   1.24919  -2.15677
H     3.14967   2.93567  -1.82857
H     2.13344   1.79577  -2.78451
H    -0.25931  -2.98209   1.62431
H     1.26985  -3.49187   0.84153
H    -0.29897  -3.80496   0.03968
