26
Generated by autodE on: 2022-06-18. E = -689.460863 Ha
C     2.48969  -1.76491   1.12299
O     1.97257  -0.43484   1.23461
C     0.81072  -0.18682   0.56136
C     0.75091   0.58833  -0.55816
O     1.73836   1.18787  -1.22272
C     3.11622   1.03037  -0.86859
C    -0.58182   0.87990  -1.19528
O    -0.61588   1.58375  -2.19527
C    -1.81666   0.29897  -0.60887
C    -3.11667   0.59975  -1.28849
C    -1.74435  -0.47730   0.50073
C    -2.96043  -1.08662   1.12349
C    -0.42727  -0.73258   1.15846
O    -0.36135  -1.38316   2.20005
H     3.41428  -1.79186   1.71473
H     1.78055  -2.50615   1.51994
H     2.72159  -2.00415   0.07179
H     3.67320   1.61682  -1.61029
H     3.42035  -0.02422  -0.93158
H     3.31304   1.41949   0.13857
H    -3.59936  -0.32955  -1.63392
H    -3.82102   1.07889  -0.58900
H    -2.97072   1.26078  -2.15083
H    -3.48764  -1.72950   0.39937
H    -3.67606  -0.30409   1.42636
H    -2.69750  -1.68404   2.00417
