35
Generated by autodE on: 2022-06-18. E = -1010.820895 Ha. Imaginary frequency = -389.2 cm-1
C    -3.13063   0.12003  -1.80531
O    -3.03008   0.12529  -0.37607
C    -1.79226  -0.15112   0.12254
C    -1.05004   0.75944   0.81452
O    -1.32099   2.03534   1.09508
C    -2.39095   2.73978   0.45456
C     0.22617   0.31625   1.47167
O     0.68948   0.95978   2.39780
C     0.91039  -0.89909   0.92740
C     2.19734  -1.30807   1.60049
C     1.68380   0.25762  -0.76311
C     2.63418   1.36904  -0.54893
C     3.06411   2.07976  -1.80240
O     3.01388   1.66451   0.56685
N     1.12894  -0.26896  -1.71574
O     0.34312  -1.15191  -1.98438
C     0.11188  -1.85173   0.28732
C     0.57297  -3.25828   0.09971
C    -1.31223  -1.54428  -0.02877
O    -2.08418  -2.41896  -0.41603
H    -4.17635   0.35128  -2.04649
H    -2.47340   0.89115  -2.23997
H    -2.86722  -0.86287  -2.22293
H    -2.28333   3.78401   0.77415
H    -3.36720   2.35085   0.77054
H    -2.29728   2.67754  -0.63952
H     2.83399  -1.88453   0.91669
H     2.75329  -0.42987   1.94504
H     1.97809  -1.94641   2.47263
H     3.53067   1.36323  -2.49649
H     3.77233   2.87557  -1.53900
H     2.18183   2.50357  -2.30777
H     0.62053  -3.77348   1.07564
H     1.58605  -3.28758  -0.32610
H    -0.11403  -3.81302  -0.54971
