19
Generated by autodE on: 2022-10-06. E = -403.239675 Ha
C     3.87259   0.75700  -0.42071
C     2.92477   0.55317   0.72176
N     1.87755  -0.16705   0.64178
C     0.91888  -0.95044   0.55704
C    -0.42035  -0.48130   0.14995
C    -0.70441   0.87645  -0.10447
C    -1.98580   1.27058  -0.48427
C    -3.00222   0.31486  -0.61889
C    -2.73357  -1.03460  -0.37034
C    -1.45020  -1.42899   0.01464
H     4.88260   0.39970  -0.15423
H     3.96566   1.82970  -0.66188
H     3.53308   0.22208  -1.31912
H     3.14167   1.02713   1.68884
H     0.09039   1.61980  -0.00000
H    -2.19841   2.32472  -0.67811
H    -4.00623   0.62587  -0.91769
H    -3.52601  -1.77925  -0.47481
H    -1.22669  -2.47930   0.21529
