15
Generated by autodE on: 2022-06-10. E = -417.109068 Ha
C    -3.54255  -0.52977   0.26278
C    -2.15221  -0.17912   0.12549
N    -1.04037   0.12724   0.01499
C     0.30387   0.30734  -0.07790
C     0.79077   1.59193  -0.38460
N     1.21935   2.65065  -0.63853
C     1.13465  -0.85741   0.14467
C     2.62788  -0.65419   0.03161
O     0.64068  -1.96029   0.41033
H    -3.98578  -0.76532  -0.71710
H    -4.08140   0.31112   0.72756
H    -3.61782  -1.40708   0.92514
H     3.13982  -1.59955   0.25321
H     2.89669  -0.32167  -0.98393
H     2.97228   0.12404   0.73084
