36
Generated by autodE on: 2022-06-10. E = -1690.542983 Ha
C    -3.37092   0.74637  -2.33371
O    -2.22425   0.21560  -1.64867
C    -1.04978   0.78383  -1.90837
O    -0.89917   1.71488  -2.66825
C     0.09737   0.07466  -1.16169
C     0.39975  -1.22823  -1.91302
C     0.48942  -2.45103  -1.23779
C     0.80356  -3.62190  -1.93422
C     1.02873  -3.58176  -3.31278
C     0.93907  -2.36237  -3.99204
C     0.62743  -1.19169  -3.29703
C    -0.28016  -0.11071   0.23616
C    -0.34809   0.07430   1.43158
C     0.00995   0.71428   2.67518
Cl   -1.42634   0.91452   3.77847
Cl    1.23735  -0.33011   3.54815
C     0.62052   2.09190   2.36649
C     1.71567   2.10249   1.28151
C     1.28164   2.23553  -0.20568
C     1.36389   0.98926  -1.11191
H    -3.24967   0.63264  -3.42049
H    -3.50543   1.80886  -2.08635
H    -4.22823   0.16129  -1.98249
H     0.31491  -2.48904  -0.16064
H     0.87062  -4.56921  -1.39403
H     1.27186  -4.49730  -3.85700
H     1.11188  -2.32051  -5.06996
H     0.55831  -0.24538  -3.83750
H     1.01322   2.48926   3.31401
H    -0.21447   2.74119   2.05973
H     2.37084   1.22556   1.41175
H     2.34500   2.97417   1.51562
H     0.27382   2.67876  -0.26559
H     1.95093   2.97901  -0.66472
H     1.56334   1.30051  -2.14704
H     2.20613   0.35457  -0.79775
