51
Generated by autodE on: 2022-06-10. E = -2107.641334 Ha. Imaginary frequency = -361.2 cm-1
C     0.65812  -9.01896   4.50155
O    -0.04727  -7.83047   4.89622
C    -0.74301  -7.88528   6.02986
O    -0.74629  -8.85652   6.75356
C    -1.57840  -6.60091   6.22754
C    -2.09087  -6.39666   7.66146
C    -2.63727  -7.45147   8.41036
C    -3.16663  -7.21857   9.68165
C    -3.18110  -5.92762  10.21921
C    -2.67581  -4.86765   9.46387
C    -2.14197  -5.10264   8.19473
C    -2.88286  -6.74012   5.34191
C    -2.78437  -6.79995   3.81684
C    -2.62425  -5.47088   3.05712
C    -1.20164  -5.00213   2.71749
C    -0.54029  -4.00797   3.67663
Cl   -1.51408  -2.45401   3.71396
Cl    1.10146  -3.61906   2.94352
C    -0.38166  -4.51860   5.04883
C    -0.77955  -5.46085   5.75680
C     1.53462  -5.48083   7.24960
C     2.25123  -6.63011   6.82796
N     2.83306  -7.58419   6.49399
C     0.92221  -5.40001   8.58948
C     0.75460  -6.69047   9.34485
O     0.60889  -4.30993   9.06096
N     1.75976  -4.31573   6.62186
C     1.21967  -3.46051   5.96902
C     1.36557  -2.02195   5.70984
H    -0.05257  -9.84455   4.35458
H     1.15480  -8.76915   3.55732
H     1.40120  -9.29002   5.26160
H    -2.64305  -8.46126   8.00681
H    -3.57423  -8.05531  10.25405
H    -3.59275  -5.74946  11.21545
H    -2.68620  -3.85101   9.86319
H    -1.74348  -4.26604   7.62028
H    -3.52545  -5.89372   5.62786
H    -3.38022  -7.65139   5.70747
H    -2.01254  -7.51610   3.49622
H    -3.74326  -7.23456   3.49173
H    -3.17350  -4.66893   3.57662
H    -3.13198  -5.59352   2.08853
H    -0.52139  -5.86513   2.65288
H    -1.19827  -4.51457   1.73236
H     1.71402  -6.93302   9.83395
H    -0.01259  -6.56322  10.11913
H     0.49397  -7.52871   8.68630
H     1.24223  -1.50952   6.67805
H     2.38134  -1.82482   5.33347
H     0.62642  -1.64506   4.99812
