46
Generated by autodE on: 2022-06-07. E = -3812.117254 Ha
C    -4.60925  -0.09692  -2.04542
N    -3.50916  -0.10797  -1.10031
C    -2.40793  -0.83358  -1.31686
O    -2.26813  -1.58782  -2.28092
C    -1.25559  -0.67709  -0.26996
C    -1.95475  -0.79711   1.10283
O    -2.60088   0.15702   1.55840
N    -1.90741  -2.01041   1.64978
C    -2.41381  -2.30243   2.97313
N    -0.31637  -1.76139  -0.50630
C     1.04764  -1.30518  -0.30456
C     1.53435  -1.64295   1.10366
O     0.91379  -1.43115   2.12444
O     2.73260  -2.22322   1.07597
C     3.32539  -2.54093   2.34539
C     1.05104   0.21859  -0.59872
Br    2.46853   1.13048   0.45089
C     1.34292   0.52561  -2.11404
C     1.43349   2.03527  -2.28453
C     0.17414   2.46945  -2.16898
C    -0.66645   1.22364  -1.95471
O     0.07140   0.23200  -2.68864
C    -0.45587   0.69923  -0.47498
C    -0.83956   1.80133   0.53022
C    -0.33342   1.79034   1.94781
O    -1.53639   2.71892   0.12707
H    -5.39934   0.55873  -1.66047
H    -5.02068  -1.10856  -2.18507
H    -4.28117   0.27713  -3.02852
H    -3.54192   0.47221  -0.26408
H    -1.23476  -2.64018   1.21594
H    -1.62706  -2.16887   3.73465
H    -2.77131  -3.34031   3.01671
H    -3.24591  -1.62611   3.20529
H    -0.45144  -2.06763  -1.47102
H     1.71484  -1.81757  -1.00729
H     2.68637  -3.24053   2.90253
H     4.29255  -3.00396   2.11969
H     3.46921  -1.62501   2.93683
H     2.13901  -0.09605  -2.53800
H     2.35251   2.60806  -2.39408
H    -0.20431   3.48938  -2.15759
H    -1.70639   1.27849  -2.28063
H    -1.15606   2.09085   2.60947
H     0.45834   2.55102   2.02980
H     0.07467   0.82353   2.26041
