18
Generated by autodE on: 2022-06-07. E = -3033.824585 Ha
C     2.73960  -0.62326  -0.17741
C     1.56129  -1.33032  -0.78781
O     1.67813  -2.42589  -1.33405
C     0.23289  -0.70980  -0.73106
C    -0.30199   0.32960  -0.05845
Br    0.43317   1.55055   1.14425
C    -1.82360   0.29175  -0.35248
C    -2.37218  -0.95604   0.37585
C    -1.86166  -1.98984  -0.29902
C    -1.00443  -1.35489  -1.41418
O    -1.77976  -0.17546  -1.70468
H     3.65766  -1.17660  -0.41433
H     2.62060  -0.56899   0.91696
H     2.81634   0.41055  -0.54739
H    -2.36708   1.23584  -0.24243
H    -2.98856  -0.93454   1.27345
H    -1.94673  -3.05911  -0.10937
H    -0.79468  -1.95233  -2.30604
