28
Generated by autodE on: 2022-07-27. E = -778.223376 Ha
C    -3.53112   1.87808  -2.30384
N    -2.60521   1.28460  -1.36248
C    -1.45974   0.71238  -1.76450
O    -1.12868   0.61875  -2.96364
C    -0.56238   0.17009  -0.71455
N     0.58363  -0.28391  -1.23134
C     1.76052  -0.69321  -0.75306
C     2.21974  -0.41907   0.58845
O     1.64241   0.26156   1.42925
O     3.43711  -0.96539   0.80173
C     4.04310  -0.69128   2.06799
C    -1.02091  -0.02814   0.68090
O    -1.72953   0.82011   1.25126
N    -0.75160  -1.22231   1.24221
C    -1.01838  -1.46622   2.64705
H    -3.09162   2.75216  -2.81340
H    -4.42851   2.20188  -1.76264
H    -3.82652   1.15208  -3.07651
H    -2.73180   1.40084  -0.35748
H     0.51291  -0.25347  -2.26499
H     2.46067  -1.08501  -1.48792
H     3.41219  -1.05936   2.89105
H     5.00349  -1.22044   2.06597
H     4.20931   0.38888   2.19719
H    -0.11272  -1.85302   0.76873
H    -0.41635  -0.80306   3.29019
H    -0.76725  -2.50832   2.87936
H    -2.08020  -1.29748   2.87724
