28
Generated by autodE on: 2022-06-07. E = -778.232445 Ha
C    -1.39114  -0.89499  -3.61034
N    -0.79058  -0.51536  -2.34502
C    -1.54889  -0.37612  -1.23252
O    -2.77316  -0.61643  -1.26423
C    -0.89666   0.07874   0.00483
N     0.42152   0.05677   0.24900
C     1.51656  -0.38460  -0.34648
C     2.76132  -0.18356   0.37420
O     2.85151   0.37522   1.46154
O     3.81181  -0.68018  -0.29708
C     5.09622  -0.52576   0.31854
C    -1.63174   0.65648   1.16105
O    -0.98197   1.10431   2.12985
N    -2.97023   0.67046   1.11500
C    -3.76209   1.20162   2.20367
H    -2.08305  -0.12282  -3.98667
H    -0.59270  -1.04633  -4.34709
H    -1.95648  -1.83141  -3.50063
H     0.13434  -0.10056  -2.37430
H     0.59123   0.49516   1.18102
H     1.49519  -0.90689  -1.29755
H     5.81841  -0.98084  -0.36928
H     5.12485  -1.03935   1.29090
H     5.33107   0.53915   0.46341
H    -3.39726   0.21805   0.30473
H    -4.82289   1.14717   1.93015
H    -3.50403   2.25252   2.40914
H    -3.60827   0.63089   3.13456
