32
Generated by autodE on: 2022-06-17. E = -710.170740 Ha
C     3.47128   0.09875   0.14292
C     2.13596   0.74769  -0.09603
O     1.93621   1.93122   0.13887
C     1.09507  -0.07862  -0.84294
N     0.01736   0.75001  -1.39091
C    -1.28624   0.22995  -0.92984
C    -1.71604   1.04590   0.28727
C    -2.57540   2.24346   0.00840
O    -1.33449   0.77370   1.41708
C    -1.01912  -1.26807  -0.66005
C    -0.95011  -2.00545  -2.00902
C    -2.08921  -1.94934   0.19776
C     0.41345  -1.21897  -0.04369
C     0.48668  -1.08975   1.45586
O     1.31186  -0.42265   2.04994
H     3.96126   0.54960   1.01603
H     4.09848   0.29418  -0.74468
H     3.38903  -0.98968   0.26511
H     1.66310  -0.55268  -1.66404
H     0.16755   1.71730  -1.10002
H    -2.04798   0.34776  -1.71575
H    -2.13003   2.85132  -0.79618
H    -3.55300   1.89445  -0.36630
H    -2.71344   2.84825   0.91402
H    -0.68335  -3.06144  -1.84827
H    -1.92927  -1.97298  -2.51106
H    -0.20716  -1.56473  -2.68836
H    -2.24234  -1.46566   1.16941
H    -3.05033  -1.93709  -0.34029
H    -1.82189  -3.00267   0.37543
H     0.91615  -2.18601  -0.23008
H    -0.19942  -1.75851   2.01938
