18
Generated by autodE on: 2022-06-17. E = -439.451518 Ha
C    -3.70008   0.20624   0.56065
C    -2.32962  -0.07421   0.00396
O    -2.16357  -0.67947  -1.06690
C    -1.19914   0.40084   0.77224
N     0.00699   0.15629   0.27192
C     1.23648   0.43607   0.68992
C     2.32588  -0.00999  -0.15169
C     3.72280   0.29455   0.32020
O     2.10514  -0.62089  -1.20933
H    -3.87222   1.29481   0.60129
H    -4.46647  -0.26224  -0.07050
H    -3.78161  -0.17085   1.59280
H    -1.28899   0.93616   1.71695
H    -0.01577  -0.35750  -0.62860
H     1.37458   0.97526   1.62660
H     4.45389  -0.03131  -0.43110
H     3.91799  -0.22537   1.27301
H     3.83792   1.37332   0.51325
