14
Generated by autodE on: 2022-06-17. E = -270.683216 Ha
C    -0.88122   1.31070   0.17355
C    -0.84961  -0.16205  -0.11924
C    -2.17109  -0.80861  -0.39095
C     0.29584  -0.89733  -0.14598
C     1.63869  -0.39175   0.09670
O     1.95223   0.76927   0.35002
H    -1.91173   1.69237   0.17835
H    -0.41153   1.53105   1.14490
H    -0.29884   1.87075  -0.57584
H    -2.08282  -1.88272  -0.60451
H    -2.84360  -0.66512   0.47310
H    -2.66401  -0.30925  -1.24372
H     0.23179  -1.96702  -0.36603
H     2.43588  -1.17209   0.03630
