44
Generated by autodE on: 2022-06-21. E = -1179.347371 Ha
C     4.37638   1.34632  -0.76014
N     3.05222   0.75402  -0.73253
C     2.53266   0.24524   0.39203
O     3.14095   0.20607   1.46538
C     1.10093  -0.24667   0.29464
C     0.70132  -1.41231   1.21437
O     1.18830  -1.86830   2.21371
O    -0.47001  -1.85116   0.69448
C    -0.70675  -1.06695  -0.54077
C    -1.56561  -1.90437  -1.49733
C    -1.97993  -3.27238  -1.05638
O    -1.81819  -1.45037  -2.59599
N     0.62180  -0.73428  -1.01140
C     1.37838  -1.85349  -1.58778
C    -1.24445   0.32123  -0.09739
C    -2.51339   0.15803   0.73375
N    -2.78747   1.12609   1.62118
O    -3.26568  -0.79972   0.53045
C    -1.60898   1.20270  -1.32339
C    -1.42167   2.65801  -1.04048
C    -0.46621   3.07123  -0.19239
N     0.37836   2.22384   0.52056
C     1.00941   2.81503   1.69991
C    -0.00160   0.83790   0.70247
H     4.64511   1.56540  -1.80045
H     5.11826   0.65381  -0.33625
H     4.40881   2.28169  -0.17772
H     2.46925   0.79776  -1.56180
H    -1.07632  -3.88812  -0.91384
H    -2.49889  -3.22766  -0.08994
H    -2.62125  -3.72262  -1.82455
H     0.88188  -2.18094  -2.51055
H     2.38523  -1.51229  -1.85289
H     1.47222  -2.71923  -0.90745
H    -2.20604   1.95065   1.72096
H    -3.67234   1.09711   2.12021
H    -2.64117   0.98185  -1.62896
H    -0.96939   0.89191  -2.16188
H    -2.02337   3.39375  -1.57570
H    -0.28190   4.13315  -0.01266
H     1.45186   3.78452   1.43313
H     1.81022   2.16440   2.06929
H     0.28232   2.97154   2.52014
H    -0.19319   0.69217   1.77636
