24
Generated by autodE on: 2022-06-21. E = -721.631079 Ha
C     4.40627  -0.22059  -0.36873
N     3.03714   0.12130  -0.05097
C     1.97197  -0.57267  -0.51335
O     2.06535  -1.56457  -1.25270
C     0.67810  -0.04356  -0.05875
C     0.45589   1.07704   0.78694
O     1.18372   1.87909   1.35232
O    -0.94619   1.15858   0.90947
C    -1.50950   0.17028   0.19753
C    -2.97889   0.04948   0.16924
C    -3.72017   1.08986   0.95901
O    -3.54178  -0.83939  -0.45775
N    -0.56007  -0.55711  -0.38700
C    -0.79024  -1.72145  -1.25175
H     4.90885   0.60493  -0.89792
H     4.41335  -1.10703  -1.01344
H     4.98077  -0.44335   0.54465
H     2.85344   0.92299   0.55030
H    -3.47660   2.09734   0.58561
H    -4.79762   0.90514   0.86970
H    -3.41645   1.05427   2.01732
H    -1.86679  -1.87679  -1.33316
H    -0.34314  -1.52302  -2.23173
H    -0.29858  -2.59258  -0.80523
