44
Generated by autodE on: 2022-06-21. E = -1179.317694 Ha. Imaginary frequency = -238.4 cm-1
C     4.14496   1.82497  -0.21533
N     3.04106   0.91005  -0.42189
C     2.65849   0.04955   0.55784
O     3.31925  -0.05147   1.60909
C     1.41223  -0.69348   0.37856
C     0.69185  -1.26959   1.46169
O     0.88585  -1.41271   2.66053
O    -0.51684  -1.72127   0.90144
C    -0.60766  -1.20093  -0.39209
C    -1.52803  -2.04858  -1.26517
C    -2.32949  -3.10656  -0.57006
O    -1.58604  -1.86115  -2.46686
N     0.71418  -1.00013  -0.80367
C     1.14607  -0.70486  -2.15019
C    -1.36667   0.45129  -0.14956
C    -2.74835   0.08457   0.39672
N    -2.86938  -0.22598   1.70249
O    -3.71666   0.06630  -0.36746
C    -1.48990   1.13722  -1.52841
C    -0.44273   2.17779  -1.79150
C     0.31410   2.69573  -0.81344
N     0.20877   2.23319   0.50500
C     1.03142   2.83159   1.55693
C    -0.51546   1.14404   0.80511
H     4.31301   2.38941  -1.14124
H     3.94013   2.53761   0.60194
H     5.06573   1.27881   0.03780
H     2.40873   1.10962  -1.18735
H    -1.64021  -3.89099  -0.21536
H    -3.05241  -3.53499  -1.27518
H    -2.83853  -2.71226   0.32060
H     0.57821  -1.31635  -2.85729
H     0.99364   0.35904  -2.41930
H     2.21157  -0.94739  -2.24310
H    -2.06427  -0.41095   2.28899
H    -3.76402  -0.59728   2.00917
H    -1.49325   0.38778  -2.33082
H    -2.48544   1.60807  -1.59276
H    -0.35412   2.58109  -2.80173
H     1.04059   3.49330  -0.96569
H     1.62624   3.64742   1.13235
H     1.70203   2.07755   1.99113
H     0.39005   3.23430   2.35484
H    -0.58136   0.92914   1.87070
