38
Generated by autodE on: 2022-06-19. E = -1087.451268 Ha
C    -2.58118   1.86860  -2.64553
O    -1.60954   1.32134  -1.73533
C    -2.07785   0.65834  -0.68857
O    -3.25302   0.50011  -0.43844
C    -0.94401   0.06796   0.16563
C    -1.44887  -0.07070   1.60887
O    -1.20988   0.73275   2.48001
O    -2.17746  -1.16726   1.76990
C    -2.74471  -1.38650   3.07321
O     0.15612   0.96966   0.18116
C     1.29737   0.40315  -0.43509
C     1.91608   1.42685  -1.29004
N     2.37052   2.23473  -1.98585
C     2.26583  -0.07986   0.66321
O     1.87385  -0.49860   1.72704
O     3.52731  -0.02603   0.27110
C     4.51847  -0.55207   1.17503
C     0.77814  -0.80173  -1.27800
C     1.80536  -1.87760  -1.59242
C    -0.41870  -1.26866  -0.43622
C    -1.43393  -2.09128  -1.21826
H    -2.00514   2.36862  -3.43172
H    -3.19533   1.06271  -3.07119
H    -3.22505   2.58936  -2.12265
H    -3.30359  -2.32608   3.00283
H    -1.94739  -1.46951   3.82504
H    -3.41764  -0.55831   3.33671
H     4.49197  -0.00020   2.12453
H     5.48275  -0.41213   0.67492
H     4.32902  -1.61921   1.35674
H     0.39688  -0.37195  -2.21597
H     2.16456  -2.37664  -0.67889
H     2.67004  -1.45432  -2.12433
H     1.35190  -2.64259  -2.23897
H    -0.03917  -1.86702   0.40467
H    -1.78437  -1.55396  -2.11335
H    -2.30360  -2.33912  -0.59518
H    -0.97203  -3.03246  -1.54998
