12
Generated by autodE on: 2022-06-19. E = -157.300303 Ha
C     1.96207  -0.06077  -0.06534
C     0.52096   0.23988  -0.34604
C    -0.52096  -0.23989   0.34602
C    -1.96207   0.06078   0.06536
H     2.52966   0.86266   0.14730
H     2.07763  -0.73932   0.79449
H     2.45141  -0.52707  -0.93894
H     0.32163   0.91146  -1.19291
H    -0.32163  -0.91147   1.19290
H    -2.07764   0.73927  -0.79452
H    -2.52969  -0.86265  -0.14719
H    -2.45138   0.52716   0.93894
