26
Generated by autodE on: 2022-06-19. E = -930.034714 Ha
C    -0.30134   3.20627   0.95078
O    -0.54416   1.92285   0.34718
C    -0.80192   0.91132   1.16900
O    -0.98927   1.00057   2.36056
C    -0.94798  -0.35644   0.39404
O    -0.21324  -0.67396  -0.62337
C     0.93722  -0.23474  -1.09568
C     1.29270  -0.76633  -2.35571
N     1.58822  -1.17669  -3.40638
C     1.89926   0.49047  -0.25763
O     1.77142   0.62467   0.94664
O     2.94669   0.89862  -0.96580
C     4.01775   1.52464  -0.23686
C    -2.10524  -1.24470   0.64145
O    -2.93954  -1.01292   1.49525
O    -2.11227  -2.30146  -0.16597
C    -3.21415  -3.21178  -0.01674
H    -1.20195   3.55521   1.47479
H    -0.05186   3.88134   0.12512
H     0.53786   3.13375   1.65613
H     3.64893   2.42273   0.27856
H     4.76971   1.79382  -0.98637
H     4.43934   0.82200   0.49566
H    -3.05269  -4.00101  -0.75923
H    -4.16523  -2.69425  -0.20754
H    -3.22267  -3.63547   0.99770
