73
Generated by autodE on: 2022-10-26. E = -1762.699279 Ha
C    -6.69440   9.18196   9.94620
N    -5.81981   8.84144   8.84269
C    -5.82303   7.62505   8.28429
O    -6.64001   6.75255   8.60728
C    -4.76193   7.45756   7.15909
C    -4.61507   6.05605   6.51768
O    -3.65001   5.85373   5.76635
N    -5.58336   5.16482   6.72304
C    -5.53255   3.84216   6.13413
O    -5.18924   8.33613   6.11338
C    -4.09030   9.12030   5.64525
C    -3.60175   8.37925   4.36724
O    -4.37730   8.03242   3.50372
O    -2.29874   8.16046   4.32685
C    -1.79673   7.39021   3.22475
C    -4.63035  10.49477   5.25028
C    -5.60008  11.10925   6.05366
C    -6.08400  12.37985   5.73917
C    -5.61591  13.05077   4.60535
C    -4.67367  12.43215   3.77983
C    -4.19052  11.16039   4.09726
C    -3.06897   9.05110   6.81056
C    -3.41025   8.01360   7.60285
C    -2.66533   7.22096   8.69346
O    -2.28406   7.90425   9.86888
C    -3.28862   8.50609  10.67448
O    -3.60832   6.21321   9.03691
C    -3.19850   5.19459   9.93328
C    -1.36867   6.59362   8.14137
C    -0.47329   7.45069   7.24718
C     0.04749   8.77445   7.81428
C    -0.98715   9.86782   8.11872
C    -2.03452  10.15540   7.00633
C    -1.26751  10.55426   5.73470
C    -2.85085  11.34372   7.60883
C    -2.54639  12.74013   7.15510
O    -3.68559  11.13291   8.47574
H    -7.75063   9.04425   9.66945
H    -6.52994  10.23372  10.21087
H    -6.48664   8.55461  10.82885
H    -5.07403   9.49514   8.60109
H    -6.27851   5.41497   7.43222
H    -5.43134   3.90352   5.03989
H    -4.67881   3.25978   6.51907
H    -6.46022   3.30867   6.37503
H    -2.24156   6.38542   3.24236
H    -0.71226   7.33133   3.36993
H    -2.03115   7.88520   2.27198
H    -5.97657  10.58990   6.93215
H    -6.83272  12.84606   6.38361
H    -5.99265  14.04640   4.35995
H    -4.31327  12.93662   2.88066
H    -3.46238  10.69454   3.43150
H    -4.15564   7.84300  10.80562
H    -3.61447   9.47010  10.25776
H    -2.82782   8.68364  11.65649
H    -4.11471   4.67696  10.24973
H    -2.52903   4.46571   9.44817
H    -2.69805   5.61137  10.82129
H    -0.79959   6.24278   9.01601
H    -1.67150   5.70812   7.56495
H     0.40246   6.82895   6.99700
H    -0.98560   7.62934   6.29192
H     0.79018   9.16916   7.10251
H     0.60097   8.58038   8.74949
H    -0.44272  10.81020   8.29329
H    -1.51398   9.63550   9.04406
H    -0.54810  11.34850   5.97486
H    -1.91657  10.91842   4.93378
H    -0.70401   9.70059   5.34556
H    -2.80883  12.84480   6.09080
H    -1.47107  12.95511   7.24367
H    -3.12659  13.45506   7.75168
