37
Generated by autodE on: 2022-10-26. E = -1029.218304 Ha
C    -2.84926   0.29629   3.66654
N    -1.97683   0.16252   2.51910
C    -1.29472  -0.98215   2.28132
O    -1.40883  -1.97066   3.04311
C    -0.44902  -1.02282   1.09105
O    -0.38078   0.16047   0.44774
C     0.11080   0.50370  -0.70039
C     0.32156  -0.55018  -1.74465
O    -0.51433  -1.40672  -1.95330
O     1.41328  -0.35622  -2.46988
C     1.65732  -1.30410  -3.52316
C     0.17743   1.92673  -0.95290
C    -0.00440   2.83296   0.12087
C     0.02423   4.20428  -0.10423
C     0.24217   4.70392  -1.39519
C     0.42836   3.81840  -2.46249
C     0.39840   2.44246  -2.25170
C     0.57138  -2.02738   0.81718
O     1.49300  -1.79763   0.00159
N     0.49088  -3.18360   1.51006
C     1.55508  -4.16243   1.46479
H    -3.28292   1.30378   3.66395
H    -2.30158   0.15171   4.61176
H    -3.66954  -0.43966   3.63940
H    -1.88148   0.93765   1.87306
H     1.76791  -2.31149  -3.09771
H     2.58950  -0.98611  -4.00278
H     0.83047  -1.29464  -4.24708
H    -0.15742   2.44609   1.12907
H    -0.11447   4.89218   0.73255
H     0.27072   5.78211  -1.56724
H     0.59478   4.20370  -3.47061
H     0.53649   1.76675  -3.09456
H    -0.19717  -3.18633   2.26808
H     1.20513  -5.09306   1.92974
H     2.46171  -3.82544   1.99801
H     1.83852  -4.37279   0.42332
