37
Generated by autodE on: 2022-10-26. E = -1029.217782 Ha
C    -3.63886   2.07125   2.01546
N    -3.10742   0.91971   1.31952
C    -1.81742   0.87202   0.92671
O    -0.98635   1.75087   1.24500
C    -1.43603  -0.23856   0.05793
O    -0.16817  -0.31148  -0.38140
C     0.96650   0.12093   0.07777
C     1.13141   0.49578   1.51696
O     1.88452   1.35985   1.91429
O     0.46051  -0.34593   2.30212
C     0.45564  -0.05011   3.70679
C     2.07378   0.07185  -0.85231
C     3.41222   0.24613  -0.42760
C     4.45458   0.16967  -1.34749
C     4.19215  -0.08179  -2.69872
C     2.87050  -0.25395  -3.13133
C     1.81998  -0.17215  -2.22484
C    -2.36425  -1.05681  -0.72152
O    -3.59682  -1.04852  -0.49798
N    -1.83588  -1.85031  -1.68159
C    -2.67372  -2.69909  -2.50245
H    -2.99781   2.33422   2.86979
H    -3.71107   2.96011   1.36424
H    -4.64263   1.83098   2.38844
H    -3.72701   0.24802   0.85800
H    -0.18950  -0.80450   4.17074
H     0.04851   0.95695   3.87450
H     1.47352  -0.11263   4.11691
H     3.63153   0.43378   0.62216
H     5.48316   0.30271  -1.00556
H     5.01464  -0.13900  -3.41513
H     2.65998  -0.44203  -4.18634
H     0.79116  -0.28565  -2.56831
H    -0.83313  -1.84790  -1.82991
H    -3.22377  -3.43431  -1.89271
H    -3.41507  -2.11210  -3.06830
H    -2.03753  -3.23960  -3.21394
