73
Generated by autodE on: 2022-10-26. E = -1762.575551 Ha. Imaginary frequency = -110.8 cm-1
C    -6.98005   9.06343  10.05425
N    -6.40099   8.83977   8.74581
C    -6.18821   7.58501   8.28002
O    -6.56268   6.58532   8.93082
C    -5.49266   7.46328   6.99048
C    -5.03296   6.19967   6.39991
O    -4.22392   6.18466   5.45167
N    -5.53596   5.06535   6.93050
C    -4.90633   3.79205   6.65085
O    -5.41962   8.61793   6.32729
C    -4.72757   9.11651   5.34923
C    -4.21923   8.26334   4.20605
O    -4.99453   7.84430   3.37176
O    -2.89988   8.23213   4.10878
C    -2.35578   7.51374   2.99072
C    -4.92116  10.53679   5.07858
C    -5.74502  11.33511   5.90132
C    -5.89121  12.69471   5.64827
C    -5.23193  13.28915   4.56485
C    -4.43204  12.50498   3.72805
C    -4.27654  11.14318   3.97729
C    -2.71309   9.04831   7.17202
C    -2.98552   8.00454   7.75242
C    -2.48062   7.01552   8.73943
O    -2.34983   7.63274  10.01212
C    -3.53872   8.18187  10.56529
O    -3.38135   5.93421   8.80756
C    -3.05349   4.87516   9.69128
C    -1.04733   6.58270   8.33764
C    -0.20924   7.53141   7.46615
C     0.21240   8.92568   7.97479
C    -0.81485  10.05421   8.19780
C    -1.88322  10.26485   7.06127
C    -1.20809  10.46754   5.69874
C    -2.72002  11.48492   7.51154
C    -2.34121  12.83891   6.98930
O    -3.63674  11.34370   8.30531
H    -7.17904  10.13606  10.17339
H    -6.31276   8.73677  10.87008
H    -7.92790   8.51546  10.15461
H    -5.87134   9.59741   8.32883
H    -6.03846   5.19970   7.81193
H    -4.92993   3.56874   5.57399
H    -3.85117   3.77707   6.97529
H    -5.44971   3.00104   7.18298
H    -2.64665   6.45570   3.05254
H    -1.26788   7.61659   3.07004
H    -2.71491   7.94471   2.04556
H    -6.27803  10.88159   6.73437
H    -6.52849  13.29695   6.29925
H    -5.34790  14.35759   4.37080
H    -3.92068  12.95688   2.87568
H    -3.64250  10.55345   3.31469
H    -4.34886   7.43758  10.59597
H    -3.87337   9.06236   9.99465
H    -3.29516   8.49082  11.59107
H    -3.94606   4.23758   9.75541
H    -2.21161   4.26884   9.31701
H    -2.80719   5.24666  10.69891
H    -0.51556   6.34806   9.27277
H    -1.14998   5.64187   7.77622
H     0.73255   6.99080   7.27131
H    -0.69355   7.62412   6.48341
H     0.96437   9.29221   7.25687
H     0.75279   8.80546   8.92996
H    -0.25623  10.99728   8.32115
H    -1.36875   9.88339   9.13057
H    -0.45008  11.26024   5.76492
H    -1.93591  10.74350   4.92807
H    -0.70708   9.54641   5.37651
H    -2.57529  12.89064   5.91435
H    -1.25943  13.01172   7.09243
H    -2.90569  13.61395   7.52266
