37
Generated by autodE on: 2022-10-21. E = -971.185469 Ha
C    -4.81818  -1.86616   0.48314
N    -3.70047  -0.96653   0.28038
C    -2.47973  -1.43683  -0.03223
O    -2.19885  -2.63251  -0.15802
N    -1.48624  -0.47438  -0.22103
N    -1.72276   0.84279  -0.09579
C    -0.63031   1.49790  -0.34117
C    -0.56028   2.96580  -0.29744
C    -1.81448   3.73929   0.00018
O     0.52107   3.51362  -0.50462
C     0.54799   0.61470  -0.63329
C     1.57594   0.54863   0.55625
O     0.85622  -0.23287   1.50642
C     0.70278  -1.40191   0.68251
C     2.11741  -1.66173   0.19011
C     2.62195  -2.96859  -0.31303
C     2.65593  -0.42806   0.10292
O     3.81938  -0.08599  -0.49008
C     4.30974   1.23379  -0.24806
C    -0.08798  -0.80344  -0.52985
H    -4.60579  -2.59523   1.28076
H    -5.06174  -2.42687  -0.43396
H    -5.69503  -1.27518   0.77414
H    -3.83132   0.03732   0.34393
H    -2.22236   3.43968   0.97814
H    -1.59276   4.81407   0.00136
H    -2.58692   3.51683  -0.75243
H     1.04222   0.85632  -1.58218
H     1.87435   1.51764   0.96585
H     0.18711  -2.20943   1.21353
H     2.55378  -3.75576   0.45699
H     3.66971  -2.88999  -0.63855
H     2.02559  -3.31735  -1.17585
H     5.26548   1.31346  -0.78165
H     4.47799   1.40501   0.82761
H     3.61501   1.99607  -0.63665
H    -0.02621  -1.43736  -1.42132
