20
Generated by autodE on: 2022-10-21. E = -461.427441 Ha
C     2.89390   0.24486  -0.49941
O     1.93085  -0.59459   0.12803
C     0.66104  -0.14900   0.20670
C    -0.01402   0.95194  -0.17627
C     0.28858   2.20696  -0.92426
C    -1.47933   0.58515   0.19800
C    -1.95007  -0.53415  -0.75881
C    -1.25611  -1.61470  -0.38624
C    -0.38598  -1.12318   0.79347
O    -1.28043  -0.18089   1.40629
H     3.85089  -0.29172  -0.46194
H     2.99199   1.20254   0.03705
H     2.62442   0.43875  -1.55016
H    -0.24709   2.21650  -1.89174
H     1.35641   2.34334  -1.13300
H    -0.06434   3.09277  -0.36733
H    -2.15851   1.43222   0.35313
H    -2.64907  -0.40628  -1.58518
H    -1.22521  -2.61341  -0.82064
H    -0.00417  -1.87202   1.49685
