37
Generated by autodE on: 2022-10-21. E = -971.050945 Ha. Imaginary frequency = -242.8 cm-1
C    -5.11983  -2.31399   0.00792
N    -3.81488  -1.82535  -0.38256
C    -3.45045  -0.54506  -0.17325
O    -4.18143   0.30402   0.34252
N    -2.13300  -0.30531  -0.61933
N    -1.68401   0.84901  -0.42953
C    -0.74672   1.59760  -0.43059
C    -0.27780   2.97228  -0.33348
C    -1.30047   3.92146   0.23735
O     0.85147   3.30538  -0.65775
C     1.12852   0.27111  -0.92086
C     1.71866   0.24655   0.51468
O     0.75614  -0.58778   1.17113
C     0.88845  -1.69619   0.25485
C     2.41020  -1.95922   0.32882
C     3.06629  -3.26504   0.05258
C     2.92574  -0.72622   0.48166
O     4.22661  -0.36574   0.43349
C     4.56372   0.94378   0.88905
C     0.62339  -0.97513  -1.08230
H    -5.19842  -3.37288  -0.26647
H    -5.92475  -1.75846  -0.49969
H    -5.27862  -2.21954   1.09462
H    -3.14057  -2.45597  -0.80204
H    -2.26460   3.81248  -0.28141
H    -0.92436   4.94912   0.15038
H    -1.46572   3.67354   1.29878
H     1.36421   1.01604  -1.67913
H     1.84657   1.20899   1.01812
H     0.22707  -2.52989   0.51585
H     2.70676  -4.05695   0.73217
H     4.15894  -3.18958   0.15860
H     2.84994  -3.60963  -0.97572
H     4.26807   1.08927   1.94101
H     5.65463   1.03156   0.80493
H     4.09157   1.71984   0.26495
H     0.23274  -1.44671  -1.98209
