34
Generated by autodE on: 2022-06-16. E = -633.247567 Ha
C     0.78322  -2.31674  -1.07790
N     0.43738  -0.91196  -0.95274
C    -0.97830  -0.58956  -0.80500
C    -1.69304  -1.54779   0.07032
N    -2.23106  -2.35453   0.70892
C    -1.04726   0.90042  -0.29100
C    -1.81487   1.74489  -1.31640
C    -1.80833   1.00957   1.04133
C     0.48695   1.30696  -0.15147
C     1.01000   2.01129  -1.41344
C     0.77742   2.22829   1.03698
C     1.19500  -0.08994  -0.01330
C     2.69914  -0.09640  -0.31222
C     1.04249  -0.62317   1.37446
N     0.92731  -1.11830   2.41878
H     0.14744  -2.77539  -1.84926
H     1.82823  -2.42098  -1.39886
H     0.64796  -2.88963  -0.13890
H    -1.47725  -0.68429  -1.78307
H    -1.41238   1.64169  -2.33287
H    -1.79295   2.80967  -1.03979
H    -2.86863   1.42644  -1.33847
H    -2.83553   0.63583   0.91839
H    -1.34074   0.44199   1.85587
H    -1.87649   2.06113   1.35152
H     0.47740   2.96004  -1.56137
H     0.88564   1.40298  -2.31822
H     2.07535   2.25561  -1.30424
H     1.85195   2.46488   1.07221
H     0.49894   1.79405   2.00538
H     0.23347   3.17752   0.92150
H     3.20309   0.67538   0.28632
H     2.87443   0.09980  -1.37698
H     3.14516  -1.06746  -0.05726
