16
Generated by autodE on: 2022-06-16. E = -397.214850 Ha
C    -2.51191  -0.72373   0.19410
C    -1.06467  -0.48988   0.51022
C    -0.54855  -0.90516   1.75380
N    -0.13537  -1.25520   2.79074
N    -0.22042   0.10370  -0.35984
C    -0.79512   0.53072  -1.65095
C     1.09282   0.32689  -0.12241
C     1.93844   0.94446  -1.04657
N     2.69518   1.45625  -1.78201
H    -3.04976   0.21800  -0.00446
H    -2.99303  -1.21264   1.05069
H    -2.64083  -1.37615  -0.68562
H    -0.01545   0.98656  -2.26616
H    -1.21000  -0.34274  -2.16776
H    -1.59352   1.25962  -1.46734
H     1.50312   0.00615   0.83489
