16
Generated by autodE on: 2022-07-27. E = -397.211963 Ha
C     2.07364  -1.12132  -0.89516
C     0.85453  -0.53047  -0.24480
C     0.90610  -0.25711   1.13741
N     1.01546  -0.11096   2.29296
N    -0.28218  -0.31231  -0.93689
C    -0.33390  -0.86523  -2.30785
C    -1.38684   0.36704  -0.54613
C    -1.45546   1.19192   0.58122
N    -1.57857   1.93384   1.48000
H     2.90346  -1.12090  -0.17705
H     2.38674  -0.54203  -1.77882
H     1.90749  -2.16309  -1.21663
H    -0.09938  -1.93567  -2.28387
H     0.40198  -0.34397  -2.93305
H    -1.33560  -0.70969  -2.71674
H    -2.25979   0.30400  -1.19213
