34
Generated by autodE on: 2022-06-16. E = -633.167375 Ha. Imaginary frequency = -369.2 cm-1
C     0.56860  -1.69827  -2.13467
N     0.29638  -1.32421  -0.74106
C    -1.02050  -1.16784  -0.38931
C    -1.48239  -1.39703   0.93226
N    -1.96288  -1.57842   1.98081
C    -1.11440   1.11952  -0.46998
C    -1.63133   1.15945  -1.89535
C    -2.18167   1.41748   0.55887
C     0.21750   1.51653  -0.21324
C     1.10165   1.96359  -1.35430
C     0.56105   2.17194   1.10075
C     1.29681  -0.70986  -0.03344
C     2.69731  -0.67445  -0.58332
C     1.22534  -0.67220   1.38400
N     1.27611  -0.60393   2.54910
H    -0.32616  -2.17027  -2.55268
H     0.83362  -0.82309  -2.74202
H     1.39553  -2.41928  -2.16920
H    -1.73408  -1.49446  -1.14693
H    -0.95323   0.68650  -2.61656
H    -1.76236   2.21036  -2.21701
H    -2.61157   0.66745  -1.97909
H    -3.11359   0.87593   0.33691
H    -1.88233   1.16365   1.58332
H    -2.41803   2.49815   0.54652
H     0.80058   2.97894  -1.67998
H     1.04246   1.31745  -2.23871
H     2.15583   2.02875  -1.04888
H     1.64955   2.19937   1.26185
H     0.10763   1.67811   1.96894
H     0.20480   3.22036   1.10090
H     3.31935  -0.03391   0.05597
H     2.72615  -0.26842  -1.60246
H     3.15493  -1.67920  -0.59917
