54
Generated by autodE on: 2022-06-10. E = -2259.259103 Ha
C     1.95786   2.79083   2.91476
N     1.96224   1.67840   1.98388
C     1.20904   1.68781   0.87397
O     0.50482   2.65338   0.56387
C     1.11099   0.34831   0.08255
C     2.29754  -0.57583   0.33403
C     3.60487  -0.12183   0.08895
C     4.69651  -0.97313   0.26558
C     4.50001  -2.28976   0.69602
C     3.20385  -2.74598   0.94557
C     2.10892  -1.89515   0.76264
N    -0.15025  -0.27910   0.45577
C    -1.28670   0.35712  -0.18688
C    -1.84207   1.54360   0.65860
O    -2.54518   2.45066   0.27918
O    -1.57656   1.32526   1.95341
C    -2.03650   2.31554   2.87995
C    -2.48424  -0.60725  -0.27384
C    -2.36139  -1.93919   0.13598
C    -3.44556  -2.81570   0.02559
C    -4.66113  -2.37189  -0.50025
C    -4.78809  -1.04137  -0.91375
C    -3.70936  -0.16332  -0.79732
C    -0.69498   0.70303  -1.61809
Cl   -1.28997   2.22258  -2.34582
C    -0.92385  -0.47292  -2.64340
C    -0.30677  -0.07727  -3.97551
C     1.01346  -0.19306  -3.80085
C     1.18402  -0.64190  -2.35573
O     0.01213  -1.43347  -2.14723
C     0.88091   0.60514  -1.44045
Cl    1.86598   1.98953  -2.03090
H     2.75342   2.63888   3.65422
H     2.13660   3.73940   2.38739
H     0.99258   2.86993   3.44151
H     2.51743   0.85675   2.19701
H     3.77132   0.90103  -0.25076
H     5.70581  -0.60547   0.06644
H     5.35485  -2.95543   0.83640
H     3.03893  -3.77233   1.28187
H     1.09872  -2.26101   0.94233
H    -0.26995  -0.37948   1.46060
H    -1.57854   3.28766   2.64834
H    -1.71958   1.97299   3.87158
H    -3.13167   2.40518   2.83889
H    -1.40970  -2.29273   0.53019
H    -3.33477  -3.85295   0.35074
H    -5.50647  -3.05835  -0.58839
H    -5.73258  -0.68339  -1.33012
H    -3.81520   0.87022  -1.12780
H    -1.94211  -0.86586  -2.66072
H    -0.85845   0.28515  -4.84116
H     1.82380   0.05187  -4.48506
H     2.09521  -1.18510  -2.09430
