41
Generated by autodE on: 2022-07-27. E = -1032.425422 Ha
C     2.32176   3.54858   1.18851
N     2.13478   2.12207   1.01524
C     1.19965   1.62959   0.18267
O     0.46511   2.36355  -0.49415
C     1.11349   0.14061   0.09819
N    -0.07285  -0.43037  -0.13685
C    -1.36017   0.01028  -0.05803
C    -1.73220   1.11517   0.81414
O    -2.74902   1.78964   0.70085
O    -0.86772   1.30339   1.83505
C    -1.07839   2.45569   2.65360
C    -2.34923  -0.70504  -0.86151
C    -1.95254  -1.42434  -2.01387
C    -2.87327  -2.16741  -2.75526
C    -4.22064  -2.19559  -2.38746
C    -4.63428  -1.47317  -1.26033
C    -3.71914  -0.74393  -0.50589
C     2.28678  -0.72908   0.13896
C     3.55216  -0.28030  -0.30753
C     4.64978  -1.13729  -0.31300
C     4.51967  -2.46351   0.11781
C     3.27653  -2.92230   0.56282
C     2.17474  -2.06677   0.58334
H     2.51225   4.04155   0.22299
H     1.43058   4.01570   1.63931
H     3.18128   3.71573   1.84886
H     2.69095   1.47845   1.56826
H    -0.00005  -1.39471  -0.47898
H    -2.03587   2.38572   3.19056
H    -0.24841   2.47579   3.36965
H    -1.07160   3.36937   2.04156
H    -0.91672  -1.38021  -2.35782
H    -2.53406  -2.71116  -3.64040
H    -4.94342  -2.76685  -2.97432
H    -5.68451  -1.48795  -0.95831
H    -4.06161  -0.20527   0.37671
H     3.66736   0.73931  -0.67645
H     5.61484  -0.77038  -0.67015
H     5.38376  -3.13154   0.11144
H     3.16539  -3.95012   0.91606
H     1.22561  -2.43007   0.98306
