54
Generated by autodE on: 2022-06-10. E = -2259.184733 Ha. Imaginary frequency = -281.2 cm-1
C     2.26776   3.26842   2.51449
N     2.05400   1.93188   1.99718
C     1.05152   1.67271   1.13442
O     0.27562   2.56131   0.76885
C     0.94696   0.24741   0.66101
C     2.11871  -0.65075   0.72511
C     3.38207  -0.21082   0.27475
C     4.47786  -1.07193   0.27244
C     4.34346  -2.39271   0.71529
C     3.09951  -2.84097   1.16677
C     2.00058  -1.97992   1.17852
N    -0.26195  -0.36593   0.60131
C    -1.48833   0.15967   0.34651
C    -1.93758   1.35824   1.11443
O    -2.72678   2.19800   0.73352
O    -1.47703   1.31025   2.37845
C    -1.76843   2.44124   3.20691
C    -2.55609  -0.75920  -0.09843
C    -2.40605  -2.16029  -0.04442
C    -3.39988  -3.00707  -0.53618
C    -4.57219  -2.48182  -1.08750
C    -4.74043  -1.09401  -1.13307
C    -3.75078  -0.24225  -0.64433
C    -0.60920   0.92585  -1.86122
Cl   -1.48947   2.36848  -2.25112
C    -0.92977  -0.36530  -2.64777
C    -0.31994  -0.19083  -4.05144
C     1.00386  -0.25189  -3.86795
C     1.18655  -0.45612  -2.35149
O     0.02880  -1.25341  -2.04091
C     0.77102   0.86994  -1.67721
Cl    1.83407   2.23854  -1.88555
H     3.18972   3.27555   3.10843
H     2.36436   3.99451   1.69299
H     1.42925   3.58949   3.15453
H     2.66442   1.18130   2.30008
H     3.49647   0.80334  -0.10733
H     5.44323  -0.71070  -0.08949
H     5.20399  -3.06541   0.71165
H     2.98250  -3.86560   1.52716
H     1.04754  -2.34225   1.56837
H    -0.16653  -1.30313   0.21040
H    -1.40453   3.36381   2.73380
H    -1.24118   2.26764   4.15247
H    -2.85056   2.52243   3.38678
H    -1.51846  -2.61537   0.39912
H    -3.25639  -4.08861  -0.47886
H    -5.34764  -3.14698  -1.47380
H    -5.65001  -0.66622  -1.56158
H    -3.88201   0.83598  -0.70837
H    -1.94988  -0.75236  -2.58477
H    -0.88889  -0.00240  -4.96110
H     1.81315  -0.12760  -4.58641
H     2.11320  -0.92411  -2.00599
