19
Generated by autodE on: 2022-05-29. E = -477.554066 Ha
C     3.40594  -1.21856   0.70737
C     2.06221  -0.77595   0.43159
N     0.97632  -0.43690   0.21781
C    -0.25781   0.07953  -0.05097
C    -0.24538   1.50427  -0.33008
C    -1.54846   2.19737  -0.64569
O     0.81709   2.14497  -0.31122
C    -1.38226  -0.82851  -0.02533
C    -1.08697  -2.28023   0.30218
O    -2.54592  -0.46763  -0.25580
H     4.02197  -0.33487   0.93838
H     3.82867  -1.74234  -0.16392
H     3.40041  -1.88778   1.58211
H    -2.02253   1.75663  -1.53532
H    -2.26664   2.08177   0.17938
H    -1.34206   3.26235  -0.81932
H    -0.62939  -2.37344   1.30042
H    -0.37796  -2.71241  -0.42223
H    -2.02505  -2.84960   0.27804
