20
Generated by autodE on: 2022-05-29. E = -771.828691 Ha
C     2.36748   0.36011   0.54220
C     0.98237   0.44455   0.00719
C     0.11857  -0.53197  -0.32385
Cl    0.38226  -2.25210  -0.19731
C    -1.25169   0.06162  -0.58949
C    -1.78355   0.53425   0.80180
C    -0.80509   1.68899   1.16779
C     0.16100   1.73156  -0.06156
C    -0.82116   1.40833  -1.20627
H     2.40942   0.76287   1.56986
H     2.72927  -0.67814   0.56457
H     3.06664   0.96458  -0.06050
H    -1.94117  -0.57082  -1.16197
H    -1.77605  -0.28709   1.53277
H    -2.81868   0.89655   0.71080
H    -1.33620   2.64771   1.26796
H    -0.25906   1.50911   2.10530
H     0.75191   2.65355  -0.14484
H    -0.32507   1.29448  -2.18128
H    -1.64835   2.13080  -1.28787
