53
Generated by autodE on: 2022-10-21. E = -1346.219185 Ha
C   -10.07384 -18.56487  12.75720
O    -9.13462 -17.48409  12.88366
C    -8.22978 -17.58170  13.85425
O    -8.17069 -18.50424  14.63103
C    -7.29494 -16.35495  13.81771
C    -6.21438 -16.30117  14.93793
C    -6.57036 -16.80260  16.30271
O    -5.14823 -15.77217  14.69810
N    -8.09088 -15.14661  14.07410
C    -7.94934 -14.39863  13.03030
C    -8.44793 -12.97159  13.08840
C    -9.90247 -12.76043  13.35971
O    -7.63293 -12.07070  12.99631
C    -7.16251 -15.01246  11.94144
C    -6.71160 -16.19485  12.42536
C    -5.79519 -17.26575  11.87506
C    -6.37615 -18.06354  10.71552
F    -5.68933 -18.21692  12.94314
C    -4.34754 -16.79822  11.64912
C    -4.06193 -15.62348  10.70335
C    -4.42300 -14.21736  11.24134
C    -5.64168 -13.50599  10.63880
C    -6.93330 -14.33170  10.60463
O    -6.92389 -15.34915   9.63058
C    -6.65914 -14.96451   8.28817
O    -7.99553 -13.42607  10.33820
C    -9.25616 -14.02884  10.06033
H    -9.54194 -19.50783  12.56797
H   -10.71125 -18.30777  11.90414
H   -10.67546 -18.65558  13.67256
H    -7.61778 -16.58425  16.55051
H    -5.88823 -16.35288  17.03617
H    -6.45404 -17.89693  16.31654
H   -10.13515 -11.68815  13.38772
H   -10.15532 -13.23130  14.32367
H   -10.50545 -13.26967  12.59170
H    -6.36142 -17.47507   9.79441
H    -5.76596 -18.96917  10.58475
H    -7.41373 -18.35725  10.93049
H    -3.80708 -17.68735  11.28666
H    -3.93980 -16.55986  12.64198
H    -2.97493 -15.65013  10.53109
H    -4.51673 -15.80369   9.71995
H    -3.56476 -13.54734  11.07816
H    -4.54709 -14.27468  12.33424
H    -5.43162 -13.16592   9.61378
H    -5.85570 -12.60694  11.23282
H    -7.03585 -15.77671   7.65099
H    -7.17814 -14.03114   8.02151
H    -5.58016 -14.84055   8.10005
H   -10.00378 -13.22571  10.10357
H    -9.27954 -14.48586   9.05865
H    -9.51890 -14.80466  10.79967
