53
Generated by autodE on: 2022-10-21. E = -1346.100586 Ha. Imaginary frequency = -270.1 cm-1
C   -10.55883 -18.02748  14.12145
O    -9.62230 -16.94816  14.01252
C    -8.44993 -17.10508  14.64696
O    -8.17203 -18.09003  15.30537
C    -7.56173 -15.94908  14.42743
C    -6.19140 -15.77621  14.97058
C    -5.57441 -16.87773  15.78248
O    -5.58660 -14.73155  14.73806
N    -8.04965 -14.89880  13.79596
C    -8.14132 -14.20275  12.83374
C    -8.60605 -12.86140  12.39696
C   -10.04467 -12.77950  12.00375
O    -7.81557 -11.93902  12.42734
C    -7.14622 -15.57239  11.30230
C    -6.79798 -16.60254  11.88554
C    -5.89794 -17.76569  11.91663
C    -6.19273 -18.71030  10.75738
F    -6.08271 -18.52621  13.09739
C    -4.44480 -17.25065  11.92820
C    -4.10895 -16.16948  10.88012
C    -4.47240 -14.71431  11.28333
C    -5.50632 -13.94492  10.44024
C    -6.85508 -14.65109  10.16503
O    -7.94506 -13.76639  10.01563
C    -7.77789 -12.68970   9.10531
O    -6.67603 -15.39864   8.97532
C    -7.81052 -16.12076   8.51342
H   -11.44449 -17.71580  13.55581
H   -10.13747 -18.94714  13.68966
H   -10.82388 -18.20650  15.17360
H    -6.19066 -17.09034  16.66881
H    -4.56716 -16.56462  16.08612
H    -5.52641 -17.80194  15.19235
H   -10.31770 -13.63258  11.36714
H   -10.65791 -12.83086  12.91983
H   -10.23098 -11.82790  11.48834
H    -6.02519 -18.20537   9.79648
H    -5.52628 -19.58357  10.82301
H    -7.23749 -19.04963  10.79921
H    -3.79647 -18.13002  11.78499
H    -4.24186 -16.85973  12.93758
H    -3.02320 -16.22187  10.70867
H    -4.57127 -16.42986   9.91621
H    -4.80389 -14.70220  12.33115
H    -3.55590 -14.10322  11.26301
H    -5.08751 -13.67623   9.45839
H    -5.73264 -13.00843  10.97085
H    -8.77854 -12.27459   8.92310
H    -7.13603 -11.89783   9.52461
H    -7.35390 -13.03372   8.14856
H    -8.61748 -15.44350   8.19124
H    -8.20211 -16.79792   9.28958
H    -7.47492 -16.71745   7.65461
