44
Generated by autodE on: 2022-06-17. E = -772.283475 Ha
C    -0.88528   2.77116  -2.14285
C    -1.14384   1.98967  -1.08442
C    -1.84035   2.49987   0.14674
C    -0.70132   0.54351  -1.08284
C     0.48098   0.25128  -0.12001
C     1.79410   0.12041  -0.83374
C     3.00344   0.46721  -0.35436
C     4.24843   0.28770  -1.18161
C     3.23587   1.03307   1.02123
C    -0.03545  -1.02795   0.65967
C     1.06016  -2.02928   1.02622
C    -0.66465  -0.58255   1.99737
C    -1.82615  -1.37261   2.53369
O    -0.18003   0.33802   2.63805
N    -1.10371  -1.58588  -0.17967
C    -0.63711  -2.42717  -1.28605
N    -1.75023  -0.36690  -0.58966
C    -2.89438  -0.53836  -1.45255
H    -0.39156   2.37271  -3.03464
H    -1.15257   3.83232  -2.14917
H    -2.02102   3.58280   0.08398
H    -2.80897   1.99286   0.28494
H    -1.25248   2.29386   1.05552
H    -0.40294   0.27960  -2.11622
H     0.56146   1.05529   0.61792
H     1.75284  -0.30679  -1.84269
H     4.02707  -0.12081  -2.17896
H     4.77800   1.24876  -1.30921
H     4.96054  -0.39091  -0.67891
H     3.94175   0.39297   1.57923
H     3.70962   2.02880   0.95755
H     2.31963   1.11981   1.61861
H     0.63574  -2.90804   1.53480
H     1.78009  -1.54933   1.70327
H     1.61132  -2.36501   0.13915
H    -2.70890  -1.19748   1.90224
H    -1.61523  -2.45139   2.49828
H    -2.03771  -1.05837   3.56443
H     0.12581  -1.96401  -1.93821
H    -1.49588  -2.71239  -1.90882
H    -0.21851  -3.35478  -0.87467
H    -3.59751  -1.25305  -0.99947
H    -3.40734   0.42942  -1.55773
H    -2.64164  -0.89075  -2.47359
