23
Generated by autodE on: 2022-06-17. E = -351.521382 Ha
C     2.14956  -2.24039  -2.15830
C     1.86728  -1.30157  -1.22836
C     2.96258  -0.59309  -0.47301
C     0.47690  -0.95626  -0.93879
C     0.06213  -0.03506  -0.03312
C    -1.33269   0.26822   0.21459
C    -1.82864   1.17061   1.09854
C    -0.98637   2.03212   1.99604
C    -3.31087   1.37222   1.24083
H     1.35220  -2.75331  -2.70496
H     3.18053  -2.51799  -2.39486
H     3.95508  -0.94626  -0.78653
H     2.86455  -0.75446   0.61344
H     2.91581   0.49678  -0.63426
H    -0.28119  -1.50079  -1.51457
H     0.81178   0.51218   0.54478
H    -2.05421  -0.30078  -0.38423
H     0.09298   1.87165   1.87801
H    -1.24728   1.85066   3.05374
H    -1.19779   3.09976   1.80855
H    -3.88607   0.72155   0.56588
H    -3.63509   1.17362   2.27829
H    -3.58491   2.42205   1.03198
