21
Generated by autodE on: 2022-06-17. E = -420.727405 Ha
C    -2.97188  -1.08889  -0.36466
N    -1.54705  -1.24659  -0.20471
N    -0.83795  -0.17272  -0.09835
C    -1.49608   1.15080  -0.14224
C     0.52133  -0.30355   0.05889
C     0.99269  -1.72454   0.09300
C     1.44318   0.80764   0.17691
C     2.91416   0.45660   0.35103
O     1.15685   2.02341   0.14874
H    -3.25102  -0.52312  -1.27206
H    -3.40436  -2.09428  -0.44903
H    -3.45429  -0.58483   0.49273
H    -0.73955   1.92528  -0.02714
H    -2.23491   1.19945   0.66752
H    -2.01353   1.25216  -1.10478
H     2.07496  -1.79878   0.22654
H     0.49948  -2.28312   0.90755
H     0.71695  -2.25425  -0.83563
H     3.47732   1.39516   0.43386
H     3.29965  -0.11798  -0.50576
H     3.08583  -0.14646   1.25615
