21
Generated by autodE on: 2022-07-27. E = -420.723161 Ha
C    -1.77621   0.53104  -2.26126
N    -0.90821   0.68654  -1.11878
N    -0.09846  -0.28200  -0.85459
C     0.05305  -1.40787  -1.80734
C     0.65043  -0.30323   0.28989
C     1.89927  -1.13947   0.33725
C     0.28114   0.43686   1.47886
C    -1.06884   1.10142   1.63987
O     1.06214   0.46631   2.45394
H    -1.22465   0.43648  -3.21445
H    -2.40009   1.43234  -2.32318
H    -2.45140  -0.34198  -2.18573
H     0.67190  -2.19325  -1.37452
H    -0.94176  -1.81471  -2.02286
H     0.50214  -1.03980  -2.73941
H     2.47638  -1.08916  -0.59830
H     1.70661  -2.20505   0.55819
H     2.52897  -0.75292   1.14781
H    -1.04439   2.12783   1.24319
H    -1.87396   0.57795   1.10716
H    -1.28314   1.14841   2.71786
