44
Generated by autodE on: 2022-06-17. E = -772.230256 Ha. Imaginary frequency = -361.3 cm-1
C    -2.23355   2.57234  -1.85194
C    -1.45435   2.10022  -0.85815
C    -1.47743   2.73572   0.50863
C    -0.52852   0.97182  -1.10363
C     0.61886   0.75787  -0.29378
C     1.86290   0.31990  -0.89985
C     3.09665   0.30729  -0.33535
C     4.30459  -0.13370  -1.11420
C     3.36719   0.72762   1.08297
C    -0.08533  -1.19867   0.75768
C     1.16061  -1.97345   1.07000
C    -0.73761  -0.54985   1.91654
C    -2.23251  -0.65774   2.13620
O    -0.05303   0.00623   2.78340
N    -0.86616  -1.55158  -0.31377
C    -0.34912  -2.49799  -1.30505
N    -1.72092  -0.58716  -0.66711
C    -2.58475  -0.87020  -1.79272
H    -2.19278   2.14577  -2.85855
H    -2.92143   3.40737  -1.68956
H    -2.30861   3.44956   0.59950
H    -1.56747   1.99195   1.31272
H    -0.53830   3.28227   0.69937
H    -0.41171   0.72131  -2.16406
H     0.69327   1.31407   0.63988
H     1.78433  -0.03222  -1.93628
H     4.05002  -0.42028  -2.14580
H     5.06594   0.66697  -1.15697
H     4.79769  -0.99529  -0.62770
H     3.94008  -0.05412   1.61195
H     3.99466   1.63766   1.11065
H     2.45390   0.92008   1.66023
H     0.92731  -3.02055   1.33036
H     1.64780  -1.51319   1.93723
H     1.87832  -1.97195   0.23827
H    -2.72774   0.28880   1.87655
H    -2.70039  -1.45646   1.54972
H    -2.38706  -0.83054   3.21251
H     0.31141  -1.98512  -2.02442
H    -1.18154  -2.96016  -1.84720
H     0.20999  -3.29184  -0.80169
H    -3.27564  -1.69885  -1.55839
H    -3.19253   0.02719  -1.96898
H    -2.05947  -1.11583  -2.73360
