20
Generated by autodE on: 2022-06-28. E = -457.715347 Ha
C     3.13786  -0.17232  -0.45605
N     1.79027   0.32016  -0.22081
C     1.60562   1.62274   0.25984
C     0.40237   2.10131   0.61365
C    -0.86549   1.28736   0.53193
C    -0.56284  -0.11787   0.03821
C    -1.62911  -1.12171  -0.11087
N    -2.87937  -0.71609   0.22554
O    -1.42850  -2.28336  -0.51999
C     0.70348  -0.49966  -0.28987
H     3.68705  -0.32391   0.48918
H     3.08811  -1.13014  -0.98927
H     3.70339   0.54145  -1.07382
H     2.51531   2.22279   0.32030
H     0.33764   3.13158   0.97101
H    -1.36399   1.26010   1.52246
H    -1.59910   1.79029  -0.13142
H    -3.64240  -1.37959   0.14901
H    -3.07751   0.21237   0.57589
H     0.89262  -1.51635  -0.63815
