37
Generated by autodE on: 2022-06-28. E = -1045.511305 Ha
C    -3.35634   2.01648   1.82622
N    -2.83882   1.26182   0.70622
C    -1.52199   0.98871   0.59789
O    -0.71269   1.31073   1.48687
C    -1.10138   0.34224  -0.66867
C    -2.09724  -0.16202  -1.64445
O    -3.19951   0.38562  -1.83974
N    -1.77071  -1.31350  -2.26807
C    -2.63898  -1.90807  -3.26478
N     0.22745   0.21509  -0.93877
C     0.69321   0.43000  -2.33063
C     1.14053  -0.03355   0.02015
C     0.71880  -0.78060   1.23311
O    -0.17676  -1.60632   1.25067
O     1.47017  -0.49057   2.29453
C     1.16172  -1.18880   3.50820
C     2.56001   0.31713  -0.18170
O     2.96483   1.31159  -0.76082
O     3.37829  -0.60154   0.34676
C     4.78345  -0.32181   0.29054
H    -3.07857   3.08377   1.77513
H    -4.45127   1.94158   1.83139
H    -2.96574   1.61414   2.77218
H    -3.40348   1.12879  -0.13446
H    -0.92281  -1.80200  -2.00093
H    -2.13718  -2.78504  -3.69129
H    -2.85664  -1.19251  -4.07270
H    -3.59864  -2.22577  -2.82552
H    -0.16979   0.53009  -2.99133
H     1.26671   1.36193  -2.35281
H     1.33007  -0.40646  -2.64358
H     0.13098  -0.96715   3.82086
H     1.27949  -2.27355   3.37270
H     1.87325  -0.82077   4.25613
H     5.00988   0.61794   0.81523
H     5.12073  -0.24739  -0.75340
H     5.27757  -1.16320   0.78966
