37
Generated by autodE on: 2022-07-28. E = -1045.511316 Ha
C    -3.84626   2.06270  -1.49946
N    -2.61525   1.43720  -1.05851
C    -2.54438   0.11286  -0.80910
O    -3.55858  -0.60881  -0.86299
C    -1.21161  -0.38914  -0.39313
C    -1.07483  -1.44455   0.63992
O     0.02783  -1.79753   1.09598
N    -2.22205  -2.04624   1.01705
C    -2.20930  -3.18548   1.90802
N    -0.09097   0.11912  -0.97509
C    -0.12146   0.43047  -2.42519
C     1.06156   0.29565  -0.29808
C     2.35165   0.35567  -1.01216
O     2.64895  -0.31532  -1.98682
O     3.18133   1.25456  -0.46736
C     4.50027   1.33466  -1.02405
C     0.99938   0.55413   1.16293
O     0.06513   1.10044   1.72252
O     2.11000   0.17357   1.79388
C     2.15932   0.41560   3.20597
H    -3.64787   3.12047  -1.71035
H    -4.63108   1.99441  -0.72867
H    -4.22635   1.58081  -2.41363
H    -1.80094   2.01903  -0.89352
H    -3.05543  -1.82637   0.46913
H    -1.81224  -4.09285   1.42033
H    -1.58259  -2.97712   2.78736
H    -3.23507  -3.38916   2.24074
H    -1.13857   0.30963  -2.80248
H     0.53285  -0.28284  -2.93599
H     0.23882   1.45283  -2.59370
H     4.45534   1.63142  -2.08189
H     5.01373   0.36585  -0.93813
H     5.02776   2.09638  -0.43852
H     1.34955  -0.12983   3.71208
H     2.06761   1.49029   3.41949
H     3.13460   0.04458   3.54112
