57
Generated by autodE on: 2022-06-28. E = -1503.207746 Ha. Imaginary frequency = -224.3 cm-1
C    -2.75472   0.23410  -2.85078
N    -1.63759  -0.35668  -2.14172
C    -1.83653  -1.01435  -0.96307
O    -3.01960  -1.21654  -0.58744
C    -0.68008  -1.40815  -0.15758
C    -0.82311  -2.02512   1.15781
O     0.17655  -2.35650   1.83935
N    -2.06856  -2.25458   1.63431
C    -2.28301  -2.67012   3.00023
C    -0.38560   1.03289   1.46000
C     0.64934   1.41856   0.62815
C     0.36004   2.15362  -0.65705
C    -1.09142   2.56481  -0.75841
C    -1.58330   3.35156  -1.91192
N    -0.67127   3.62357  -2.87284
O    -2.76410   3.72743  -2.01857
C    -2.00413   2.17315   0.16129
N    -1.68432   1.40780   1.25943
C    -2.75184   0.96913   2.15406
C     1.63025  -0.63413  -0.01125
C     2.73528  -0.01360  -0.79307
O     2.67612   0.34237  -1.95664
O     3.79356   0.23670  -0.01087
C     4.86596   0.98971  -0.59365
C     2.10565  -1.07638   1.37363
O     2.10209  -0.42682   2.39579
O     2.79220  -2.21701   1.21670
C     3.36814  -2.77669   2.40377
N     0.60343  -1.20843  -0.69085
C     0.86395  -1.73136  -2.06968
H    -3.26534   1.00966  -2.25665
H    -2.37732   0.69578  -3.77224
H    -3.49630  -0.53246  -3.11909
H    -0.73749   0.07769  -2.29844
H    -2.83322  -1.92636   1.04172
H    -1.82700  -1.96789   3.72005
H    -1.85748  -3.66739   3.20037
H    -3.36310  -2.71164   3.19233
H    -0.18166   0.52302   2.40044
H     1.62948   1.51150   1.08936
H     1.02296   3.03269  -0.74171
H     0.63385   1.52198  -1.52847
H     0.29507   3.32803  -2.81010
H    -0.96452   4.15488  -3.68593
H    -3.05247   2.45669   0.06869
H    -2.32530   0.34997   2.95073
H    -3.49373   0.37955   1.59993
H    -3.25099   1.84032   2.60525
H     5.29280   0.44890  -1.45026
H     4.50490   1.97453  -0.92367
H     5.61613   1.10410   0.19685
H     2.57849  -2.99869   3.13618
H     4.09609  -2.08105   2.84603
H     3.86829  -3.70124   2.09246
H     0.93631  -0.94903  -2.82799
H     1.80985  -2.28636  -2.04618
H     0.05794  -2.42572  -2.31870
