27
Generated by autodE on: 2022-06-03. E = -744.617360 Ha
C    -1.71208  -3.62205   0.60914
O    -0.87853  -2.49167   0.32938
C    -1.45332  -1.27935   0.43953
O    -2.62226  -1.13244   0.75791
C    -0.50543  -0.19698   0.13302
N     0.71110  -0.57697  -0.18171
C     1.81519  -0.87067  -0.47277
C     3.17832  -1.13781  -0.79091
C     3.57971  -2.58492  -0.81827
O     3.93876  -0.19607  -1.02412
C    -0.79900   1.24543   0.15443
C    -2.08487   1.74766   0.44619
C    -2.32299   3.12307   0.45636
C    -1.29654   4.02989   0.17846
C    -0.01768   3.54291  -0.11340
C     0.23088   2.17199  -0.12620
H    -2.56703  -3.65457  -0.08213
H    -2.08302  -3.58422   1.64391
H    -1.07871  -4.50553   0.46756
H     3.96461  -2.82451  -1.82259
H     4.39942  -2.73588  -0.09769
H     2.74379  -3.25494  -0.57354
H    -2.89370   1.05494   0.66400
H    -3.32763   3.48708   0.68509
H    -1.48958   5.10496   0.18851
H     0.79727   4.23665  -0.33323
H     1.23826   1.82038  -0.35653
