43
Generated by autodE on: 2022-06-03. E = -1848.952371 Ha. Imaginary frequency = -298.6 cm-1
C     1.37909   3.65532   0.57723
O     1.03712   2.31081   0.93268
C     1.90694   1.35422   0.60309
O     2.99346   1.56895   0.09962
C     1.37130  -0.00150   0.88600
C     2.20465  -1.20882   0.80039
C     3.13018  -1.37855  -0.24682
C     3.84070  -2.57260  -0.36318
C     3.64767  -3.60762   0.55904
C     2.73741  -3.43938   1.60788
C     2.02248  -2.24891   1.73073
N     0.20997  -0.05449   1.50546
C    -0.99262   0.03014   1.43399
C    -2.11670   0.08238   2.39529
C    -2.37064   1.41361   3.03073
O    -2.76026  -0.93191   2.59984
C    -1.38233   0.15553  -0.75390
C    -2.21989   1.39099  -0.76167
F    -1.55478   2.48879  -0.36072
F    -2.69829   1.65471  -1.99784
F    -3.30459   1.26957   0.03805
C    -2.07130  -1.22831  -1.02562
C    -1.31327  -2.29410  -0.22998
C    -0.13737  -2.41939  -0.85413
C    -0.19451  -1.41752  -2.00839
O    -1.59658  -1.49344  -2.36264
C    -0.17716   0.02209  -1.41855
Cl    0.70896   1.26843  -2.24362
H     1.49730   3.74386  -0.51195
H     2.31069   3.96133   1.07465
H     0.54456   4.27785   0.91880
H     3.26101  -0.59013  -0.98614
H     4.54510  -2.70011  -1.18840
H     4.20681  -4.54090   0.46148
H     2.58532  -4.23898   2.33641
H     1.31267  -2.11907   2.54992
H    -1.68483   1.50613   3.89122
H    -3.40804   1.46597   3.38810
H    -2.14601   2.23950   2.34166
H    -3.16416  -1.22051  -0.96518
H    -1.66957  -2.75429   0.69017
H     0.72219  -3.03227  -0.59589
H     0.46574  -1.57435  -2.86644
