40
Generated by autodE on: 2022-06-19. E = -1064.762842 Ha
C     3.47663  -0.21302   2.77863
N     2.75723  -0.02649   1.53331
C     2.00005  -0.99104   1.00244
O     1.87663  -2.12455   1.47204
C     1.25767  -0.61818  -0.29400
C     1.77862  -1.57471  -1.39460
C     2.86234  -1.05195  -2.28665
O     1.31485  -2.69420  -1.48445
O     1.52867   0.74608  -0.64210
C     0.35694   1.36588  -1.16733
C     0.67760   1.99433  -2.45399
N     0.93176   2.47812  -3.47713
C    -0.70454   0.22800  -1.28270
C    -0.26988  -0.70311  -0.14146
C    -0.76752  -0.22482   1.23015
C    -2.20113   0.23860   1.16171
C    -3.06499   0.31324   2.34956
N    -2.50423  -0.04092   3.53383
O    -4.25420   0.68952   2.30543
C    -2.72521   0.66411  -0.02322
N    -2.07835   0.64937  -1.21741
C    -2.63105   1.32282  -2.38116
H     2.79175  -0.23226   3.64240
H     4.18617   0.61315   2.90832
H     4.03073  -1.16250   2.76102
H     2.73493   0.88405   1.08367
H     3.27180  -1.87037  -2.89223
H     3.65373  -0.57039  -1.69252
H     2.44477  -0.27521  -2.94817
H     0.00374   2.15020  -0.47751
H    -0.54766  -0.28608  -2.24332
H    -0.61104  -1.72581  -0.33814
H    -0.64839  -1.05857   1.93711
H    -0.12004   0.58836   1.60359
H    -3.07393   0.00613   4.37124
H    -1.54115  -0.33879   3.61875
H    -3.75272   1.03117  -0.05640
H    -3.72544   1.35990  -2.29822
H    -2.25419   2.35610  -2.48063
H    -2.36403   0.77008  -3.29440
