20
Generated by autodE on: 2022-06-19. E = -457.715310 Ha
C    -2.97605   1.03014   0.43121
N    -1.80081   0.32143  -0.04801
C    -1.95420  -0.72689  -0.96395
C    -0.91905  -1.45418  -1.41286
C     0.50660  -1.21417  -0.98064
C     0.57192  -0.07613   0.02496
C     1.84996   0.35055   0.61657
N     2.95428  -0.31626   0.19583
O     1.94619   1.26619   1.45923
C    -0.54905   0.59441   0.41472
H    -2.66258   1.84948   1.09002
H    -3.64434   0.36016   0.99749
H    -3.54584   1.45602  -0.40984
H    -2.98124  -0.90836  -1.28581
H    -1.11823  -2.25473  -2.12897
H     0.93670  -2.14370  -0.55463
H     1.14013  -0.99846  -1.86561
H     3.85568  -0.05248   0.57818
H     2.91803  -1.05587  -0.49385
H    -0.47287   1.40705   1.13896
