20
Generated by autodE on: 2022-06-19. E = -606.939875 Ha
C     3.17320  -0.59516  -0.93249
N     1.73436  -0.75752  -0.93913
C     0.95116  -0.07491  -0.08540
O     1.37981   0.79436   0.69319
C    -0.47664  -0.44172  -0.06454
O    -1.33008   0.28440   0.64283
C    -1.37669   1.45867   1.17220
C    -0.47070   2.52324   0.98246
N     0.09414   3.53874   0.86231
C    -1.06017  -1.67803  -0.57160
C    -2.49826  -1.97311  -0.23160
O    -0.39871  -2.44422  -1.28429
H     3.63468  -1.02631  -0.02738
H     3.59271  -1.09706  -1.81314
H     3.43918   0.47124  -0.97041
H     1.29615  -1.54754  -1.41624
H    -2.30456   1.65543   1.71435
H    -2.76172  -2.95851  -0.63574
H    -3.15935  -1.20765  -0.66842
H    -2.65749  -1.95724   0.85754
