23
Generated by autodE on: 2022-10-26. E = -459.841664 Ha
C    -0.84301  -1.75158  -1.55766
C    -0.72636  -0.87991  -0.34773
C     0.34364   0.12449  -0.24844
C     0.11049   1.45212   0.17270
C     1.14890   2.38352   0.22761
C     2.44583   2.02372  -0.15165
C     2.69120   0.71858  -0.59360
C     1.65666  -0.21515  -0.64499
N    -1.67044  -1.04011   0.58768
C    -1.59162  -0.36657   1.89740
N    -2.72517  -1.82991   0.51031
H     0.01103  -1.61489  -2.23093
H    -0.91213  -2.82037  -1.28026
H    -1.76052  -1.51819  -2.13252
H    -0.90017   1.76656   0.43562
H     0.93753   3.40447   0.55538
H     3.25642   2.75502  -0.11135
H     3.69915   0.42297  -0.89540
H     1.86878  -1.23252  -0.98047
H    -1.95943  -1.08480   2.63831
H    -2.24282   0.51702   1.90190
H    -0.56376  -0.07711   2.13166
H    -2.74041  -2.21315  -0.43838
