21
Generated by autodE on: 2022-10-21. E = -2961.019895 Ha
C     2.64752  -0.92541   0.14881
O     1.51423  -1.74600  -0.12857
C     0.30705  -1.18407  -0.31479
C    -0.19253   0.07376  -0.29651
Br    0.60796   1.74320   0.13036
C    -1.70974  -0.03899  -0.40184
C    -2.21040  -0.63427   0.95033
C    -1.62638  -2.07761   0.91964
C    -0.88254  -2.12244  -0.45419
C    -1.82490  -1.26970  -1.32315
H     3.50586  -1.60561   0.22492
H     2.82441  -0.20516  -0.66438
H     2.52465  -0.38484   1.09913
H    -2.21787   0.87976  -0.72011
H    -3.31057  -0.64611   0.98311
H    -1.85344  -0.04283   1.80565
H    -0.94179  -2.28617   1.75434
H    -2.42344  -2.83578   0.94014
H    -0.61598  -3.12730  -0.80622
H    -1.43481  -1.08753  -2.33484
H    -2.84653  -1.67646  -1.37982
