44
Generated by autodE on: 2022-10-21. E = -3420.840201 Ha. Imaginary frequency = -340.6 cm-1
C    -3.52048  -2.17817  -0.20840
O    -2.34210  -1.57243  -0.73076
C    -1.83398  -0.52132  -0.02215
N    -1.10635  -1.68603   1.68938
N     0.09451  -1.13737   1.91161
C     0.26378  -0.60488   3.26606
C     0.97583  -0.94116   0.88913
C     1.16232  -2.10932  -0.05112
C     2.12897  -0.02801   1.06723
C     1.97631   1.25575   1.63448
C     3.05710   2.12937   1.74889
C     4.32544   1.75086   1.29604
C     4.49559   0.48694   0.72492
C     3.41337  -0.38784   0.60836
C    -0.67885   0.16481  -0.47696
Br   -0.01485  -0.14944  -2.26878
C    -0.90708   1.63440  -0.13348
C    -2.03564   2.17180  -1.06498
C    -3.28542   1.36871  -0.59892
C    -2.73891   0.53326   0.60152
C    -1.70155   1.50598   1.18020
H    -3.40130  -2.43125   0.85631
H    -4.39644  -1.51916  -0.32517
H    -3.68683  -3.09692  -0.78692
H    -0.99961  -2.36934   0.94042
H    -0.14678  -1.35350   3.95476
H    -0.27179   0.34066   3.43041
H     1.32532  -0.45618   3.48802
H     1.74325  -1.82291  -0.93186
H     1.71043  -2.91135   0.47640
H     0.21940  -2.52689  -0.42095
H     0.99759   1.58655   1.97399
H     2.90398   3.11826   2.18780
H     5.17101   2.43716   1.38301
H     5.47978   0.17481   0.36702
H     3.57850  -1.36882   0.16320
H    -0.00222   2.25511  -0.11290
H    -2.17054   3.25209  -0.90100
H    -1.79703   2.01838  -2.12577
H    -3.69326   0.72021  -1.38789
H    -4.09380   2.03406  -0.26005
H    -3.50487   0.15637   1.28940
H    -1.13357   1.09147   2.01317
H    -2.14979   2.46123   1.49219
