54
Generated by autodE on: 2022-06-14. E = -1708.410803 Ha
C    -4.41356  -1.96339  -1.75911
N    -3.20630  -1.76402  -0.97768
C    -2.67777  -0.55459  -0.80161
O    -3.16452   0.47932  -1.27705
C    -1.42896  -0.52083   0.07184
N    -0.66504  -1.76374   0.12600
C     0.31268  -1.27511   1.08107
C     1.30452  -2.30001   1.63478
O     2.50009  -2.12441   1.66331
O     0.67177  -3.36629   2.08867
C     1.48336  -4.40146   2.67617
O    -0.54135  -0.82260   2.15753
C    -1.68886  -0.38140   1.58056
O    -2.62982   0.03980   2.18823
C     0.95374  -0.03085   0.37297
C     1.84315  -0.59095  -0.79550
O     1.71643  -1.76174  -1.17099
N     2.65652   0.27505  -1.39343
C     3.38901  -0.08157  -2.59386
C     1.79690   0.89202   1.27220
O     2.51051   1.77363   0.83366
O     1.75893   0.53953   2.54430
C     2.51769   1.34013   3.46306
C    -0.37227   0.64882  -0.21748
C    -0.78480   1.94879   0.52976
O    -0.14762   2.35670   1.50268
N    -1.90285   2.52847   0.08767
C    -2.50463   3.62869   0.81749
C    -0.22700   0.87120  -1.72565
O    -0.45068   0.01273  -2.55087
O     0.22581   2.08424  -1.99824
C     0.49111   2.39076  -3.38049
H    -4.27680  -1.59787  -2.78809
H    -5.26413  -1.42540  -1.31328
H    -4.64168  -3.03498  -1.78650
H    -2.74131  -2.55911  -0.54877
H    -0.19404  -1.97560  -0.75821
H     2.03312  -4.00303   3.54027
H     0.78608  -5.18514   2.99107
H     2.19201  -4.79086   1.93209
H     2.74062   1.20579  -0.98545
H     3.86471   0.82052  -2.99601
H     4.16647  -0.83258  -2.38224
H     2.70437  -0.49892  -3.34744
H     2.14794   2.37521   3.44732
H     2.36013   0.89165   4.45011
H     3.58378   1.32105   3.19727
H    -2.47261   1.99757  -0.58249
H    -2.86183   3.30099   1.80837
H    -3.35525   4.01279   0.24110
H    -1.77739   4.43977   0.96540
H     1.27614   1.72574  -3.76627
H    -0.42548   2.27317  -3.97434
H     0.82877   3.43243  -3.39380
