38
Generated by autodE on: 2022-06-03. E = -1551.929539 Ha
C    -0.01766  -1.52383   3.95350
N     0.42519  -0.89922   2.72257
C     0.51551  -1.57843   1.57554
O     0.37361  -2.79232   1.45280
C     0.90076  -0.67987   0.34328
C     2.37230  -0.68991   0.32388
N     3.52854  -0.76239   0.36398
O     0.44815   0.65385   0.49945
C    -0.92260   0.74799  -0.01058
C    -1.91202   0.64453   1.13228
C    -2.16592   1.79810   1.88935
C    -3.00582   1.75113   3.00430
C    -3.60686   0.54433   3.37574
C    -3.36209  -0.61007   2.62604
C    -2.52067  -0.56053   1.51130
C    -1.02127  -0.32928  -1.10120
C    -0.86732   0.15301  -2.58166
O    -0.20654  -0.97902  -3.17204
C     0.95706  -0.94966  -2.32492
C     1.38723   0.51290  -2.47096
Cl    2.98677   1.13281  -2.39410
C     0.24275   1.18316  -2.63762
F     0.03809   2.48909  -2.72470
C     0.25262  -1.20205  -0.94767
H     0.50495  -2.47872   4.10161
H    -1.10292  -1.71786   3.93461
H     0.20767  -0.85702   4.79491
H     0.41918   0.11522   2.65376
H    -0.98323   1.76164  -0.42798
H    -1.69583   2.74131   1.59900
H    -3.19533   2.65909   3.58170
H    -4.26583   0.50406   4.24621
H    -3.82647  -1.55713   2.91009
H    -2.33026  -1.47766   0.95189
H    -1.93723  -0.92148  -1.02159
H    -1.79813   0.40954  -3.09828
H     1.69870  -1.69990  -2.61692
H     0.03935  -2.27111  -0.85662
