25
Generated by autodE on: 2022-07-27. E = -685.392348 Ha
C     2.04413  -2.58382   1.86063
N     2.12906  -1.30153   1.19110
C     1.28687  -0.98479   0.17105
O     0.29324  -1.68240  -0.10324
C     1.59550   0.22227  -0.58059
C     2.88283   0.76071  -0.69117
N     3.96155   1.22016  -0.73123
O     0.76174   0.57637  -1.63042
C    -0.52647   0.58087  -1.66051
C    -1.49101   0.56487  -0.60576
C    -1.20719   0.66507   0.78076
C    -2.24897   0.78956   1.69256
C    -3.58121   0.76913   1.25932
C    -3.87748   0.65508  -0.10475
C    -2.84508   0.56820  -1.03001
H     2.39009  -3.41722   1.22389
H     2.66572  -2.55583   2.76468
H     1.00559  -2.79149   2.15429
H     2.97249  -0.75110   1.31578
H    -0.89053   0.72768  -2.68204
H    -0.18125   0.68222   1.14023
H    -2.02294   0.88566   2.75639
H    -4.39108   0.84190   1.98875
H    -4.91542   0.64360  -0.44273
H    -3.06779   0.50452  -2.09736
