38
Generated by autodE on: 2022-06-03. E = -1551.798587 Ha. Imaginary frequency = -347.4 cm-1
C     1.65295  -2.43004   3.67533
N     1.84431  -1.33866   2.74175
C     0.83601  -0.92101   1.93999
O    -0.29804  -1.41386   2.01403
C     1.20641   0.08741   0.92144
C     2.56804   0.41984   0.72748
N     3.70860   0.64826   0.61766
O     0.37061   0.98254   0.35599
C    -0.92810   0.96699   0.15598
C    -1.95557   0.80961   1.17618
C    -1.69054   0.92319   2.55496
C    -2.73866   0.88432   3.47401
C    -4.05663   0.71381   3.03791
C    -4.32999   0.61149   1.66776
C    -3.29104   0.67403   0.74316
C    -0.91437  -1.06871  -1.04862
C    -1.01050  -0.64719  -2.54104
O    -0.18480  -1.66740  -3.15649
C     0.98103  -1.39433  -2.33668
C     1.15309   0.10797  -2.61982
Cl    2.63428   0.97012  -2.62845
C    -0.09605   0.55726  -2.75878
F    -0.53728   1.79985  -2.91312
C     0.35118  -1.58224  -0.93575
H     2.62853  -2.72645   4.07999
H     0.99555  -2.14379   4.51339
H     1.19768  -3.29604   3.17168
H     2.73055  -0.84497   2.74504
H    -1.19201   1.61277  -0.68488
H    -0.67131   1.08240   2.90625
H    -2.52324   0.98532   4.54010
H    -4.87218   0.67056   3.76340
H    -5.35881   0.49084   1.32137
H    -3.50218   0.60916  -0.32710
H    -1.77784  -1.33535  -0.44629
H    -2.01278  -0.58706  -2.97756
H     1.83221  -2.03405  -2.58921
H     0.73573  -2.27990  -0.19984
