29
Generated by autodE on: 2022-10-21. E = -800.070505 Ha
C    -5.29549   0.65199  -0.43900
N    -3.92840   0.18914  -0.56897
C    -2.93266   0.75090   0.14223
O    -3.10700   1.67185   0.95211
C    -1.59890   0.18447  -0.12648
O    -1.42084  -0.74651  -1.06866
C    -0.04435  -1.10659  -1.11962
O     0.33448  -1.95898  -1.91147
C     0.57320  -0.28623  -0.14208
C     1.99986  -0.23736   0.16300
C     2.67152   0.95571   0.50409
C     4.04312   0.95024   0.76246
C     4.77896  -0.23513   0.67044
C     4.12828  -1.42085   0.31251
C     2.75640  -1.42540   0.06382
N    -0.43232   0.47128   0.44389
C    -0.25384   1.37400   1.58496
H    -5.38430   1.71513  -0.71378
H    -5.93287   0.05865  -1.10492
H    -5.65691   0.53866   0.59521
H    -3.71287  -0.56005  -1.21894
H     2.12934   1.90037   0.54252
H     4.54268   1.88586   1.02496
H     5.85296  -0.23387   0.86988
H     4.69247  -2.35328   0.23394
H     2.25575  -2.35544  -0.20775
H     0.58069   1.00406   2.18921
H    -1.17462   1.38354   2.17155
H    -0.03613   2.39010   1.23162
