21
Generated by autodE on: 2022-10-21. E = -387.436421 Ha
C     2.87497  -0.16324   0.75783
O     1.84114  -0.82900   0.04408
C     0.70694  -0.12014  -0.15163
C     0.35623   1.12893   0.22328
C    -1.11938   1.26720  -0.14032
C    -1.92244   0.35801   0.84627
C    -1.47875  -1.07566   0.42700
C    -0.49952  -0.80491  -0.76179
C    -1.18504   0.40805  -1.42331
H     3.72187  -0.85874   0.82195
H     2.54072   0.10778   1.77381
H     3.19049   0.75320   0.23044
H     0.93051   1.84070   0.81550
H    -1.49652   2.29627  -0.21286
H    -3.00643   0.49563   0.70808
H    -1.68546   0.58991   1.89466
H    -0.98438  -1.63092   1.23741
H    -2.33404  -1.67598   0.08195
H    -0.27328  -1.67996  -1.38473
H    -0.60209   0.83157  -2.25454
H    -2.21268   0.19441  -1.75799
