50
Generated by autodE on: 2022-10-21. E = -1187.480657 Ha. Imaginary frequency = -354.9 cm-1
C    -4.12896   2.92236  -0.83820
N    -2.84490   2.50030  -0.31668
C    -2.03536   1.67464  -1.00604
O    -2.21389   1.35685  -2.19076
C    -0.90843   1.09497  -0.23845
O    -0.76810   1.50074   1.09009
C     0.49509   1.12851   1.50717
O     0.82775   1.23320   2.67553
C     1.16737   0.62941   0.31535
C     2.58088   0.26077   0.21835
C     3.47302   0.56919   1.26575
C     4.81270   0.18685   1.19285
C     5.29106  -0.50935   0.07849
C     4.41372  -0.82752  -0.96308
C     3.07182  -0.45301  -0.89535
C    -0.10533  -1.26758   0.82289
C     0.37200  -2.37125  -0.09760
C    -0.48554  -3.61857   0.29205
C    -1.91205  -3.23269  -0.20191
C    -1.69731  -1.82084  -0.83059
C    -0.29602  -1.99540  -1.43501
C    -1.39819  -0.89574   0.35256
O    -2.37991  -0.63893   1.29272
C    -3.71689  -0.50355   0.82557
N     0.36882   1.01435  -0.74814
C     0.77974   1.30328  -2.11476
H    -4.03434   3.19967  -1.89645
H    -4.48101   3.79329  -0.27117
H    -4.88196   2.11855  -0.75649
H    -2.65591   2.62478   0.67322
H     3.10667   1.10844   2.13807
H     5.48874   0.43869   2.01333
H     6.34091  -0.80625   0.02334
H     4.77384  -1.37985  -1.83408
H     2.40190  -0.73407  -1.70614
H     0.10783  -1.30543   1.89311
H     1.45349  -2.55701  -0.10915
H    -0.10621  -4.51022  -0.23080
H    -0.44622  -3.82088   1.37225
H    -2.27445  -3.93099  -0.97060
H    -2.65117  -3.21488   0.61052
H    -2.49250  -1.48600  -1.50683
H    -0.25752  -2.81490  -2.16801
H     0.09800  -1.09169  -1.90040
H    -4.26936   0.06865   1.58393
H    -3.77860   0.02644  -0.13437
H    -4.19550  -1.48979   0.70426
H     0.70304   0.43439  -2.78370
H     0.15054   2.10626  -2.51366
H     1.82050   1.64704  -2.09827
