50
Generated by autodE on: 2022-06-10. E = -1650.188095 Ha
C     4.08993  -1.76631   1.01513
N     2.90417  -0.94514   1.13089
C     2.51914  -0.10274   0.17343
O     3.20740   0.13155  -0.83259
C     1.09312   0.52181   0.38278
C     1.10904   2.06484   0.04479
O     0.30978   2.82469   0.59718
N     2.02315   2.50396  -0.82593
C     2.04764   3.88614  -1.25599
N     0.66784   0.30244   1.74440
C     1.31541   1.09318   2.78074
C    -0.75480  -0.04072   1.92090
C    -1.59783   1.19097   2.32355
C    -0.88005  -1.04506   3.08127
C    -1.14310  -0.68533   0.50804
C    -2.58890  -0.33221   0.11546
F    -3.42428  -0.70628   1.11034
F    -3.03861  -0.96529  -0.98132
F    -2.79063   0.97381  -0.11817
C    -0.98278  -2.27816   0.54721
C    -1.35902  -2.90368  -0.78321
C    -0.35619  -2.59785  -1.61083
C     0.61719  -1.79637  -0.77024
O     0.44090  -2.37791   0.51987
C     0.04282  -0.32014  -0.48937
C    -0.26140   0.36967  -1.83162
F    -0.73136   1.62169  -1.71178
F     0.87022   0.43536  -2.56226
F    -1.15571  -0.28390  -2.58684
H     3.91145  -2.63935   0.36367
H     4.91393  -1.17967   0.58709
H     4.38217  -2.12455   2.01066
H     2.18960  -1.15576   1.82596
H     2.64384   1.80428  -1.23744
H     2.15724   4.56915  -0.39935
H     1.11683   4.15385  -1.78367
H     2.89525   4.03234  -1.93704
H     1.22149   0.58836   3.75308
H     0.92166   2.11756   2.87653
H     2.38821   1.17467   2.56034
H    -2.63529   0.91270   2.54148
H    -1.17791   1.60230   3.25122
H    -1.57272   1.97551   1.56620
H    -0.18097  -1.88430   2.97879
H    -1.90612  -1.43108   3.15577
H    -0.65557  -0.53480   4.02818
H    -1.41050  -2.74248   1.43596
H    -2.28798  -3.43080  -0.99117
H    -0.24733  -2.80264  -2.67416
H     1.65721  -1.81416  -1.09968
