31
Generated by autodE on: 2022-07-27. E = -668.240338 Ha
C     2.60486  -2.00735  -2.23546
N     1.90846  -0.94418  -1.55217
C     1.02886  -1.20065  -0.54402
O     0.90179  -2.36647  -0.08627
C     0.26029  -0.09237  -0.02269
C     0.34097   1.26679  -0.46995
O     1.03837   1.62294  -1.46227
N    -0.36866   2.23324   0.20771
C    -0.16593   3.63690  -0.08464
N    -0.59441  -0.43386   1.08105
C     0.06284  -0.79824   2.34880
C    -1.89890  -0.37191   1.00470
C    -2.57529  -0.10175  -0.28769
C    -2.73749  -0.55903   2.22348
H     1.92186  -2.68980  -2.77467
H     3.29651  -1.56951  -2.96780
H     3.19208  -2.62323  -1.53515
H     1.87816   0.00584  -1.92412
H    -0.72476   2.00893   1.12953
H     0.85132   3.98821   0.16946
H    -0.32848   3.83965  -1.15321
H    -0.88977   4.22810   0.49250
H     0.04407   0.06530   3.03115
H     1.10024  -1.06235   2.12959
H    -0.43909  -1.65049   2.82288
H    -1.93731  -0.36902  -1.14009
H    -3.53287  -0.64106  -0.31814
H    -2.80283   0.97580  -0.35941
H    -3.76145  -0.21223   2.03850
H    -2.78116  -1.63273   2.47838
H    -2.32177  -0.03093   3.09354
