31
Generated by autodE on: 2022-06-10. E = -668.241220 Ha
C     0.91199   3.66787  -0.63827
N     1.02216   2.26182  -0.33074
C    -0.07729   1.45572  -0.29555
O    -1.23155   1.95110  -0.35955
C     0.15369   0.03057  -0.17532
C     1.43849  -0.60633  -0.13399
O     2.53182   0.00756  -0.28857
N     1.46944  -1.96211   0.09187
C     2.72288  -2.66385   0.26715
N    -1.02359  -0.78407  -0.15440
C    -1.29520  -1.60556  -1.34729
C    -1.93141  -0.65483   0.78131
C    -1.64645   0.10703   2.02174
C    -3.27535  -1.28156   0.62277
H     0.19995   4.16870   0.03599
H     0.57120   3.85838  -1.67337
H     1.89517   4.14123  -0.51155
H     1.91475   1.77116  -0.40644
H     0.63485  -2.40752   0.45417
H     2.52397  -3.74309   0.31033
H     3.40041  -2.46997  -0.57745
H     3.25329  -2.37113   1.19192
H    -1.75037  -2.56557  -1.07327
H    -1.97180  -1.05554  -2.01879
H    -0.34870  -1.78358  -1.86480
H    -2.16464  -0.36441   2.86943
H    -0.56697   0.18444   2.20788
H    -2.04278   1.13037   1.91054
H    -3.68567  -1.11614  -0.38400
H    -3.19905  -2.37269   0.77343
H    -3.97141  -0.88282   1.37056
