19
Generated by autodE on: 2022-06-10. E = -981.905312 Ha
F    -1.71604   2.00183   0.75375
C    -0.57839   1.75073   0.07357
F     0.44735   2.07578   0.87327
F    -0.55471   2.59368  -0.97484
C    -0.56034   0.32904  -0.36518
C     0.34556  -0.64348  -0.23765
C     1.69144  -0.65696   0.41222
F     2.43641   0.40880   0.08094
F     2.38392  -1.75427   0.05562
F     1.59473  -0.67577   1.75592
C    -0.37377  -1.91580  -0.77074
C    -1.48260  -2.25704   0.24939
C    -2.38346  -1.28065   0.11398
C    -1.80576  -0.36276  -0.98568
O    -1.14837  -1.32288  -1.82167
H     0.26978  -2.72642  -1.12408
H    -1.45333  -3.09600   0.94310
H    -3.30245  -1.08854   0.66562
H    -2.49631   0.28237  -1.53796
