50
Generated by autodE on: 2022-06-10. E = -1650.121556 Ha. Imaginary frequency = -192.6 cm-1
C     4.33722  -0.84311  -0.99841
N     3.36185   0.11048  -0.51738
C     2.55184  -0.19100   0.52996
O     2.78643  -1.17703   1.24856
C     1.37545   0.70939   0.70737
C     1.57128   2.09112   0.15316
O     1.84605   2.32445  -1.03671
N     1.56516   3.08936   1.06380
C     1.63136   4.47929   0.65771
N     0.57464   0.59373   1.85189
C     1.10100  -0.03598   3.08252
C    -0.73302   0.95101   1.83491
C    -1.21323   2.10002   0.99704
C    -1.55759   0.67297   3.05586
C    -1.39378  -0.69486   0.19289
C    -2.73414  -0.24349  -0.28781
F    -2.71959   0.83675  -1.08558
F    -3.57855   0.03026   0.73648
F    -3.35997  -1.21642  -1.00479
C    -1.38528  -2.03636   0.99444
C    -1.65837  -3.16653  -0.01726
C    -0.55496  -3.22313  -0.77024
C     0.37878  -2.14951  -0.18848
O     0.01773  -2.19499   1.19594
C    -0.22418  -0.76281  -0.57035
C    -0.04660  -0.29688  -1.97746
F    -0.34845   0.99121  -2.18880
F     1.21570  -0.49515  -2.41208
F    -0.83992  -1.01076  -2.82619
H     4.94148  -1.23303  -0.16786
H     5.00408  -0.34367  -1.71377
H     3.86373  -1.70229  -1.50734
H     3.01604   0.81817  -1.16315
H     1.32972   2.87664   2.02649
H     1.60272   5.11152   1.55348
H     2.56176   4.68587   0.10729
H     0.78396   4.74780   0.00501
H     2.18943   0.01337   3.06558
H     0.73634   0.53549   3.94376
H     0.79034  -1.08268   3.16662
H    -0.83141   2.10440  -0.02814
H    -0.88872   3.03654   1.48147
H    -2.30629   2.11487   0.97274
H    -1.31020   1.39490   3.85534
H    -1.40408  -0.33692   3.45528
H    -2.61824   0.79944   2.81337
H    -1.94666  -2.04664   1.93390
H    -2.59181  -3.71969  -0.10728
H    -0.33933  -3.82917  -1.64909
H     1.45004  -2.28878  -0.33762
