37
Generated by autodE on: 2022-06-02. E = -924.985330 Ha
C    -2.09480   0.76620  -4.86852
N    -2.16366   0.90817  -3.42590
C    -1.09395   0.72545  -2.64824
O     0.03360   0.44366  -3.06499
C    -1.31765   0.92490  -1.13922
F    -2.69552   1.05101  -0.88526
C    -0.77308  -0.18101  -0.36113
C    -0.09365  -0.71056   0.48966
C     0.83971  -0.81043   1.60155
C     2.31007  -0.99704   1.09180
C     2.50711  -1.57075  -0.27666
O     3.22445  -0.69259   1.82775
C     0.59693  -2.00707   2.56051
C    -0.22232  -3.14713   2.04158
O     1.08815  -1.98334   3.67078
C     0.72604   0.53057   2.38814
C     0.82030   1.81406   1.53998
C    -0.46607   2.37102   0.86563
C    -0.61165   2.21212  -0.66074
H    -1.31434   1.41905  -5.28738
H    -3.06325   1.04671  -5.29899
H    -1.86336  -0.27140  -5.15759
H    -3.05270   1.10490  -2.97788
H     1.93433  -2.50697  -0.37484
H     3.57407  -1.74982  -0.45966
H     2.10273  -0.87614  -1.03024
H    -0.22577  -3.97447   2.76246
H     0.17384  -3.47965   1.06865
H    -1.25312  -2.80037   1.86116
H    -0.22356   0.51705   2.94525
H     1.53666   0.51709   3.12837
H     1.61763   1.70342   0.78516
H     1.18160   2.59259   2.22943
H    -0.48443   3.45498   1.05477
H    -1.36455   1.97242   1.36540
H    -1.19784   3.04539  -1.08049
H     0.37834   2.23786  -1.14041
