50
Generated by autodE on: 2022-06-06. E = -1829.793827 Ha
C     0.50878  -5.20412  -2.09492
N     0.35658  -3.76251  -2.02798
C    -0.00373  -3.15504  -0.89814
O    -0.34308  -3.71361   0.14422
C    -0.07962  -1.63396  -0.94650
O     0.46899  -1.05417  -2.18686
C    -0.15429   0.14083  -2.30480
O     0.01263   0.93957  -3.17568
C    -1.12476   0.17894  -1.06821
C    -2.29068   1.01884  -1.28014
N    -3.19807   1.69877  -1.51618
O    -1.42553  -1.21759  -1.00114
C    -0.19039   0.36346   0.16525
C     0.50867  -0.78403   0.19725
C     1.72995  -1.14553   0.99091
Cl    2.75932  -2.29876  -0.00172
C     1.44187  -1.72180   2.38289
C     1.37431  -0.64609   3.47156
C     0.35891   0.48435   3.26876
C     0.76601   1.56312   2.23808
C    -0.08238   1.65601   0.92737
C    -1.48569   2.14603   1.36672
O    -1.74126   3.34409   1.54327
N    -2.39775   1.19447   1.61799
C    -3.76351   1.53028   1.97510
C     0.69755   2.63106  -0.01085
O     1.62645   2.17361  -0.68801
N     0.35673   3.91805  -0.00361
C     1.05286   4.89048  -0.82289
H    -0.38476  -5.70261  -1.69361
H     1.38241  -5.53576  -1.50994
H     0.64623  -5.49941  -3.14164
H     0.66631  -3.18961  -2.80749
H     2.37582  -0.26651   1.06573
H     0.51173  -2.30767   2.34274
H     2.25361  -2.41834   2.63631
H     2.37866  -0.20651   3.59926
H     1.13868  -1.15980   4.41739
H    -0.62017   0.04888   3.02200
H     0.21765   0.98578   4.23756
H     0.68978   2.55946   2.69499
H     1.81989   1.44970   1.95150
H    -2.15636   0.21603   1.49155
H    -4.31215   0.60288   2.17798
H    -4.25833   2.06818   1.15025
H    -3.78940   2.16851   2.87079
H    -0.44465   4.17343   0.57922
H     0.58559   5.87251  -0.68139
H     1.00011   4.62021  -1.88939
H     2.11625   4.95926  -0.54408
