16
Generated by autodE on: 2022-06-06. E = -641.692672 Ha
C     4.04934   0.13362   0.64451
N     2.60670   0.23107   0.52555
C     1.88006  -0.61677  -0.21084
O     2.28045  -1.56835  -0.87176
C     0.40090  -0.33151  -0.19748
O    -0.43728  -1.04583  -0.84878
C    -1.82682  -0.47388  -0.60305
O    -2.77505  -0.99099  -1.12003
C    -1.51668   0.59599   0.24653
C    -2.34065   1.54700   0.85052
N    -3.04990   2.33170   1.34497
O    -0.13520   0.63811   0.46301
H     4.33768  -0.03239   1.69349
H     4.40220  -0.70675   0.03642
H     4.52505   1.06101   0.29193
H     2.13234   0.98093   1.02377
