16
Generated by autodE on: 2022-07-27. E = -641.693360 Ha
C     1.69094  -3.87006   0.06168
N     1.40916  -2.44916  -0.01384
C     0.17896  -1.94283   0.12114
O    -0.86758  -2.55151   0.31217
C     0.13466  -0.44042   0.01682
O     1.13791   0.33674  -0.15694
C     0.60928   1.77908  -0.19594
O     1.37910   2.68089  -0.34998
C    -0.75884   1.54136  -0.01891
C    -1.83162   2.43294   0.04064
N    -2.71330   3.19647   0.08689
O    -0.99598   0.16971   0.10685
H     0.75312  -4.41217   0.22616
H     2.38090  -4.07972   0.89287
H     2.15224  -4.21900  -0.87423
H     2.18549  -1.80945  -0.16773
