50
Generated by autodE on: 2022-06-06. E = -1829.715141 Ha. Imaginary frequency = -289.5 cm-1
C     1.29712  -4.93784  -1.83052
N     1.09492  -3.50100  -1.84148
C    -0.12999  -2.97469  -1.73643
O    -1.19053  -3.58791  -1.75052
C    -0.15190  -1.46967  -1.62670
O     0.69793  -0.71323  -2.31603
C     0.15041   0.60892  -2.40118
O     0.71624   1.49540  -2.98076
C    -1.08817   0.46307  -1.69337
C    -2.13959   1.38584  -1.57697
N    -2.98294   2.18361  -1.47813
O    -1.31860  -0.87475  -1.49008
C     0.25571   0.29881   0.52407
C     0.53153  -0.90753   0.47569
C     1.11927  -2.00165   1.27042
Cl   -0.05005  -3.42573   1.34475
C     1.38047  -1.55612   2.71478
C     2.49310  -0.52282   2.94161
C     2.38483   0.88272   2.31976
C     1.02361   1.59191   2.45160
C     0.17896   1.63841   1.11075
C    -1.26605   2.01328   1.51054
O    -1.56283   3.17629   1.81657
N    -2.15053   1.01174   1.57835
C    -3.54570   1.25619   1.89162
C     0.88182   2.64386   0.15739
O     1.89296   2.28270  -0.45325
N     0.38049   3.87731   0.07686
C     0.98218   4.87879  -0.78113
H     0.61660  -5.42320  -2.54342
H     1.10468  -5.35055  -0.82630
H     2.33331  -5.15355  -2.11635
H     1.90094  -2.88991  -1.73423
H     2.02243  -2.40083   0.78936
H     0.42500  -1.19282   3.12426
H     1.64569  -2.45944   3.28439
H     3.45497  -0.95935   2.62405
H     2.56057  -0.41040   4.03693
H     3.14682   1.50717   2.81119
H     2.67561   0.85365   1.26185
H     1.14593   2.63788   2.76573
H     0.39965   1.10389   3.21503
H    -1.86869   0.08279   1.27910
H    -4.07967   0.29847   1.89087
H    -4.00211   1.92212   1.14207
H    -3.65176   1.72462   2.88161
H    -0.42990   4.08737   0.66246
H     1.99898   5.14049  -0.44639
H     0.35991   5.78170  -0.76312
H     1.04997   4.51077  -1.81653
