24
Generated by autodE on: 2022-05-28. E = -675.383637 Ha
C    -2.06436  -1.55513   1.15228
C    -2.26726  -0.34614   0.29744
O    -3.22487   0.40236   0.40248
C    -1.22360  -0.03510  -0.78079
O    -0.21373  -1.04560  -0.88219
C     1.08405  -0.49887  -0.73631
C     1.85428  -1.13396   0.43398
C     3.33333  -0.89192   0.43811
O     1.28083  -1.78707   1.28397
C     0.81090   0.96470  -0.51182
F     1.82558   1.81963  -0.35061
C    -0.48788   1.26054  -0.51923
C    -1.14034   2.58956  -0.36643
H    -1.05411  -1.54607   1.58677
H    -2.11200  -2.45542   0.51649
H    -2.83862  -1.60283   1.92886
H    -1.78393   0.02268  -1.73426
H     1.68038  -0.65562  -1.65609
H     3.55158   0.17275   0.26134
H     3.78378  -1.45205  -0.39884
H     3.77341  -1.22546   1.38655
H    -0.38710   3.38359  -0.26513
H    -1.79440   2.61019   0.51929
H    -1.77567   2.81310  -1.23920
