17
Generated by autodE on: 2022-07-26. E = -459.267648 Ha
C    -2.48557  -0.32599   0.74682
C    -2.24605   0.45969  -0.52010
O    -3.18086   0.93162  -1.17971
C    -0.89074   0.66265  -0.97362
O     0.07188   0.15793  -0.25768
C     1.36201   0.18982  -0.42939
C     2.14945  -0.48850   0.58129
C     3.64136  -0.46238   0.37545
O     1.61795  -1.05336   1.54360
H    -3.10845  -1.20161   0.50316
H    -3.06358   0.30026   1.44471
H    -1.56061  -0.66007   1.23168
H    -0.64519   1.21831  -1.88384
H     1.76467   0.71087  -1.30194
H     3.90238  -0.99390  -0.55501
H     4.14249  -0.94319   1.22552
H     3.99906   0.57424   0.26604
