43
Generated by autodE on: 2022-06-22. E = -1053.680772 Ha
C     5.65058   0.42998   1.65749
C     4.80442   0.57060   0.61720
C     5.24730   1.16235  -0.69435
C     3.41009   0.13732   0.75728
C     2.46591   0.21463  -0.19814
C     1.05556  -0.22961   0.01514
C     0.52112  -1.15272  -1.10258
C     0.80686  -2.57133  -0.84457
N     1.05290  -3.68879  -0.65470
O    -0.88726  -0.94497  -1.18541
C    -1.30472   0.02219  -0.23826
C    -1.75606  -0.73045   1.03326
O    -1.34864  -1.84088   1.29628
O    -2.58572  -0.03745   1.79613
C    -2.98257  -0.64146   3.04036
C    -2.45146   0.85963  -0.81453
O    -2.90516   1.83327  -0.25355
O    -2.87162   0.41091  -1.98880
C    -3.93094   1.15425  -2.61757
C    -0.02364   0.89849   0.04383
C     0.17554   1.90279  -1.10073
C    -0.03065   1.62323   1.38611
H     6.69642   0.74232   1.58911
H     5.31517  -0.00201   2.60528
H     5.10178   0.44689  -1.52079
H     6.30871   1.44607  -0.66509
H     4.65439   2.05756  -0.94551
H     3.13541  -0.28301   1.73176
H     2.70921   0.61948  -1.18441
H     0.99459  -0.76603   0.97150
H     0.97425  -0.89847  -2.07538
H    -3.65521   0.07770   3.52032
H    -2.09957  -0.82186   3.66947
H    -3.50383  -1.59029   2.85225
H    -4.14122   0.63614  -3.55978
H    -4.82315   1.16227  -1.97583
H    -3.60672   2.18652  -2.81108
H     0.13458   1.42121  -2.08888
H    -0.59402   2.68574  -1.06616
H     1.15207   2.39583  -0.99822
H    -0.10276   0.92650   2.23431
H    -0.86784   2.33273   1.44183
H     0.90861   2.18585   1.49610
