23
Generated by autodE on: 2022-06-22. E = -351.521382 Ha
C    -3.62544   0.91091  -0.57096
C    -2.57551   0.15631  -0.17838
C    -2.77612  -1.20200   0.44375
C    -1.21273   0.65450  -0.35393
C    -0.07887  -0.00282  -0.00299
C     1.25045   0.53812  -0.20053
C     2.42953  -0.05094   0.12269
C     3.73465   0.64333  -0.14705
C     2.55644  -1.40479   0.76174
H    -3.47643   1.89673  -1.02225
H    -4.65524   0.56277  -0.45183
H    -2.34189  -1.24321   1.45656
H    -2.27391  -1.98722  -0.14546
H    -3.84374  -1.45324   0.51528
H    -1.12089   1.64708  -0.81118
H    -0.16246  -0.99256   0.45382
H     1.29262   1.53193  -0.66254
H     3.59311   1.62833  -0.61560
H     4.37479   0.03080  -0.80724
H     4.30573   0.78048   0.78888
H     3.16852  -2.07037   0.12771
H     3.09187  -1.32335   1.72428
H     1.59422  -1.89919   0.94707
