16
Generated by autodE on: 2022-05-26. E = -533.327077 Ha
C    -4.18000  -0.03481  -0.25523
O    -2.75902  -0.08469  -0.48523
C    -1.98364  -0.03780   0.59214
O    -2.37371   0.04315   1.73776
C    -0.57506  -0.09544   0.23946
C     0.61568  -0.13219   0.01065
C     2.03624  -0.25945  -0.26803
O     2.60119  -1.33075  -0.33479
O     2.60984   0.92691  -0.43403
C     4.02303   0.92324  -0.71304
H    -4.64310  -0.08329  -1.24674
H    -4.49457  -0.89048   0.35878
H    -4.44936   0.90325   0.25033
H     4.57157   0.45648   0.11718
H     4.30768   1.97585  -0.81756
H     4.22432   0.37580  -1.64466
