16
Generated by autodE on: 2022-05-26. E = -472.220787 Ha
N     4.53565  -0.38908  -1.45462
C     3.70169  -0.50493  -0.63756
N     2.87870  -0.69114   0.38134
N     1.63958  -0.38907   0.20182
C     0.49707  -0.17184   0.21933
C    -0.89834   0.10032   0.22032
C    -1.35962   1.38747   0.56807
C    -2.72818   1.64372   0.56799
C    -3.63257   0.63127   0.22668
C    -3.17438  -0.64570  -0.11810
C    -1.80938  -0.92003  -0.12465
H    -0.64223   2.16585   0.83193
H    -3.09267   2.63741   0.83545
H    -4.70481   0.83954   0.22931
H    -3.88526  -1.43070  -0.38298
H    -1.43634  -1.91000  -0.39119
