30
Generated by autodE on: 2022-06-16. E = -555.740564 Ha
C     1.18467  -2.21443  -1.50238
C     1.53199  -1.27828  -0.60815
C     2.36850  -1.57228   0.60477
C     1.01717   0.12981  -0.75399
N     2.03902   1.18520  -0.51439
N     1.52780   2.11781   0.14697
N     0.22407   1.91501   0.44956
C    -0.29491   2.60917   1.60965
C    -0.10860   0.49610   0.23905
C    -1.48789   0.26065  -0.28531
C    -2.27366  -0.79623  -0.00879
C    -1.89556  -1.91926   0.91964
C    -3.62304  -0.94448  -0.65858
H     0.57274  -1.96653  -2.37477
H     1.49791  -3.25632  -1.38688
H     2.65302  -2.63306   0.65050
H     1.82852  -1.31661   1.53237
H     3.28509  -0.95974   0.60085
H     0.65176   0.27686  -1.78455
H    -1.39184   2.64097   1.55427
H     0.08933   3.63764   1.61864
H    -0.00615   2.10649   2.55173
H     0.04181  -0.03568   1.19524
H    -1.83926   1.00381  -1.00980
H    -1.79591  -2.85999   0.35094
H    -2.69265  -2.08795   1.66402
H    -0.95105  -1.75161   1.45327
H    -3.85039  -0.10991  -1.33800
H    -3.67805  -1.88636  -1.23245
H    -4.41899  -1.00162   0.10475
