23
Generated by autodE on: 2022-06-16. E = -351.521379 Ha
C     3.65659   0.65142  -0.71078
C     2.58124   0.14181  -0.07070
C     2.73633  -0.73490   1.14568
C     1.23472   0.43943  -0.55492
C     0.07874  -0.00438  -0.00029
C    -1.23331   0.32100  -0.52122
C    -2.43183  -0.07147  -0.02000
C    -3.71535   0.34815  -0.67906
C    -2.60156  -0.93111   1.20048
H     3.54069   1.28776  -1.59358
H     4.67501   0.44541  -0.36981
H     2.28097  -1.72577   0.98202
H     2.22692  -0.29565   2.01950
H     3.79578  -0.87927   1.40020
H     1.17621   1.07873  -1.44411
H     0.12949  -0.64181   0.88656
H    -1.24318   0.95287  -1.41764
H    -3.54187   0.97119  -1.56874
H    -4.30719  -0.53482  -0.98059
H    -4.35060   0.91428   0.02579
H    -3.15409  -1.85271   0.94540
H    -3.21513  -0.40606   1.95382
H    -1.65415  -1.22007   1.67338
