41
Generated by autodE on: 2022-06-18. E = -790.912394 Ha. Imaginary frequency = -402.4 cm-1
C    -0.01536  -2.33051   5.17869
O     0.10722  -1.62772   3.93075
C    -1.01957  -1.12186   3.41691
O    -2.12539  -1.23146   3.91742
C    -0.79212  -0.55007   2.08914
N    -0.62612   0.61745   1.75138
C    -0.43630   1.51827   0.83610
C     0.94952   1.95044   0.48792
C    -1.59233   2.30273   0.30988
C    -0.80638  -0.99894  -0.73539
C    -2.12419  -0.63143  -1.37071
C     0.41949  -0.62559  -1.38446
C     0.55647   0.07758  -2.55094
C     1.84191   0.40088  -3.13252
C     2.09838   1.09208  -4.27413
C     3.50941   1.34313  -4.73078
C     1.03292   1.66409  -5.16846
C    -0.77860  -1.78182   0.42134
H    -0.70106  -3.18350   5.07290
H     0.99295  -2.68198   5.42537
H    -0.38541  -1.65732   5.96537
H     1.70693   1.29273   0.93376
H     1.12747   2.98873   0.81812
H     1.06005   1.93004  -0.61013
H    -1.56600   3.33940   0.68957
H    -2.55422   1.84634   0.57681
H    -1.50944   2.36333  -0.78881
H    -2.96776  -0.87100  -0.70593
H    -2.19003   0.43967  -1.62287
H    -2.28052  -1.17722  -2.32009
H     1.34073  -0.94397  -0.87855
H    -0.34472   0.41298  -3.07263
H     2.71122   0.03842  -2.56761
H     3.68469   0.92400  -5.73927
H     4.25110   0.90594  -4.04500
H     3.71604   2.42657  -4.81476
H     1.11809   1.25350  -6.19133
H     0.01265   1.47005  -4.81104
H     1.15423   2.75822  -5.27044
H    -1.68123  -2.31962   0.72666
H     0.15977  -2.26467   0.71406
