18
Generated by autodE on: 2022-06-17. E = -235.968070 Ha
C     1.30635  -0.17287  -1.46609
C     0.66676  -0.05717  -0.10327
C     1.69611  -0.08467   1.00102
C    -0.66679   0.05718   0.10328
C    -1.69610   0.08475  -1.00104
C    -1.30635   0.17279   1.46610
H     1.89095  -1.10773  -1.53733
H     2.02913   0.64822  -1.62152
H     0.59686  -0.15693  -2.30198
H     2.42456   0.73511   0.86672
H     2.28221  -1.02023   0.95604
H     1.27873   0.00070   2.01142
H    -2.28224   1.02027  -0.95598
H    -1.27866  -0.00050  -2.01142
H    -2.42454  -0.73508  -0.86692
H    -0.59681   0.15669   2.30195
H    -1.89090   1.10766   1.53750
H    -2.02914  -0.64831   1.62144
