22
Generated by autodE on: 2022-06-17. E = -591.892388 Ha
C     4.05885  -1.03556  -0.76482
O     2.79136  -0.87144  -0.10487
C     2.70012   0.13510   0.77223
O     3.59928   0.90728   1.04601
C     1.40643   0.11530   1.45808
N     0.39255   0.72770   1.15440
C    -0.75441   1.21563   0.86711
C    -1.72445   0.49495   0.04716
C    -1.42005  -0.74567  -0.54929
C    -2.37884  -1.40936  -1.31253
C    -3.64859  -0.84781  -1.49904
C    -3.95431   0.38713  -0.91668
C    -3.00085   1.05631  -0.14895
H     3.94640  -1.91076  -1.41473
H     4.29899  -0.14599  -1.36459
H     4.85541  -1.20866  -0.02699
H    -0.99982   2.20850   1.25788
H    -0.42549  -1.17933  -0.42097
H    -2.13365  -2.37008  -1.77143
H    -4.39564  -1.37044  -2.10079
H    -4.94214   0.83101  -1.06086
H    -3.23824   2.01900   0.31030
