40
Generated by autodE on: 2022-06-17. E = -827.848181 Ha. Imaginary frequency = -387.8 cm-1
C    -4.00301   2.37192   0.93463
O    -2.73071   1.75914   0.66570
C    -2.60949   1.11916  -0.50486
O    -3.49437   1.01943  -1.33779
C    -1.33386   0.41963  -0.59221
N    -0.24715   0.70653  -1.07341
C     0.97244   0.22064  -1.22997
C     2.04868   0.58544  -0.33088
C     1.80764   1.26158   0.88511
C     2.85409   1.51478   1.76983
C     4.15767   1.10200   1.46440
C     4.40707   0.43433   0.25932
C     3.36597   0.18125  -0.63293
C     0.18044  -2.05566  -0.27161
C     0.51896  -2.77025  -1.56019
C     1.21997  -2.16712   0.81601
C    -1.14107  -1.74541   0.04743
C    -1.53932  -1.52228   1.49252
C    -2.27146  -2.22152  -0.84427
H    -4.22163   3.14939   0.18869
H    -4.80140   1.61597   0.92333
H    -3.91578   2.81771   1.93190
H     1.22287  -0.16241  -2.22291
H     0.79344   1.58593   1.12887
H     2.65361   2.03996   2.70692
H     4.97500   1.30353   2.16054
H     5.42161   0.11177   0.01298
H     3.56012  -0.34257  -1.57211
H     1.58931  -2.67303  -1.80011
H    -0.05331  -2.39609  -2.42145
H     0.30554  -3.85530  -1.48303
H     1.16310  -1.35264   1.55178
H     2.23923  -2.16512   0.40286
H     1.09880  -3.11463   1.37742
H    -0.82733  -0.88335   2.03330
H    -1.59096  -2.48564   2.03514
H    -2.53201  -1.05252   1.56372
H    -2.44005  -3.30610  -0.70180
H    -3.21576  -1.71071  -0.60391
H    -2.06880  -2.06380  -1.91275
