30
Generated by autodE on: 2022-06-05. E = -746.807800 Ha
C     1.58114  -2.39813  -0.42974
N     1.84736  -1.42755  -1.47295
C     1.67746  -0.09076  -1.43121
O     2.00047   0.64229  -2.38372
C     1.14217   0.54921  -0.21327
C     0.02016   0.39046   0.52239
C    -1.09284  -0.55263   0.42653
C    -1.82148  -0.91109   1.57813
C    -2.87766  -1.81972   1.49793
C    -3.23636  -2.37511   0.26552
C    -2.53358  -2.01198  -0.88885
C    -1.47436  -1.10826  -0.81140
C     0.01420   1.63397   1.46004
C    -0.30789   2.84666   0.55869
C     0.78583   3.01087  -0.19172
C     1.74764   1.89458   0.26782
O     1.42293   1.81836   1.66415
H     0.61578  -2.90923  -0.57389
H     2.37686  -3.15702  -0.42790
H     1.56972  -1.90674   0.55038
H     2.19960  -1.77749  -2.36134
H    -1.54496  -0.48816   2.54573
H    -3.42461  -2.09490   2.40271
H    -4.06609  -3.08304   0.20293
H    -2.81822  -2.42935  -1.85753
H    -0.94986  -0.81179  -1.72091
H    -0.53571   1.54328   2.40187
H    -1.26210   3.37140   0.53218
H     0.98043   3.70781  -1.00583
H     2.81846   2.03859   0.09122
