22
Generated by autodE on: 2022-06-05. E = -645.312885 Ha
C     3.21846   0.72270  -0.18004
O     1.92149   0.29029   0.25027
C     1.05829  -0.06760  -0.71008
O     1.38575  -0.13860  -1.88325
C    -0.28558  -0.36840  -0.17175
C    -0.93057   0.48754   0.81006
O    -2.02610   0.26296   1.33013
O    -0.24607   1.60779   1.08453
C    -0.82655   2.49647   2.04582
N    -0.98743  -1.44478  -0.67784
C    -0.33338  -2.32712  -1.67678
N    -2.16226  -1.81405  -0.36267
H     3.75150  -0.09536  -0.68599
H     3.13370   1.57935  -0.86472
H     3.75466   1.01710   0.72972
H    -1.80015   2.86885   1.69486
H    -0.95844   1.99203   3.01417
H    -0.11948   3.32810   2.14783
H    -0.22840  -1.78569  -2.62149
H     0.65537  -2.62784  -1.31279
H    -0.98745  -3.19513  -1.78850
H    -2.51052  -1.14245   0.34138
