52
Generated by autodE on: 2022-06-05. E = -1392.115382 Ha. Imaginary frequency = -366.2 cm-1
C    -3.78479   1.92197  -2.47153
N    -2.68998   1.85297  -1.52665
C    -2.58585   0.86476  -0.62998
O    -3.42629  -0.04012  -0.51946
C    -1.44376   0.94214   0.35280
N    -0.22714   2.41668  -0.37159
N     0.75771   1.79459  -0.98121
C     0.63822   1.77596  -2.44611
C     1.59162   0.95957  -0.25729
C     2.05124   1.49656   1.04619
O     1.98693   2.68510   1.33325
O     2.53399   0.59129   1.89766
C     2.96030   1.08273   3.17553
C     2.21899  -0.18214  -0.93621
O     2.05156  -0.47639  -2.11093
O     2.96138  -0.94830  -0.12395
C     3.53161  -2.12444  -0.70879
C    -0.60770  -0.14084   0.70715
C    -0.39979  -1.40717   0.02392
C    -0.73262  -1.59634  -1.33601
C    -0.52957  -2.82445  -1.95952
C     0.01423  -3.90023  -1.24797
C     0.35624  -3.73014   0.09753
C     0.15632  -2.50171   0.72533
C    -0.46732  -0.01452   2.24607
C    -1.82617  -0.46082   2.81114
C    -2.67258   0.52253   2.48469
C    -1.81100   1.55818   1.74219
O    -0.55599   1.40967   2.41297
H    -3.62561   2.77720  -3.13958
H    -4.75161   2.04790  -1.95770
H    -3.84275   1.00402  -3.07769
H    -1.94566   2.54716  -1.51900
H     0.05746   2.59387   0.59422
H     0.06285   0.91053  -2.79396
H     1.63265   1.75013  -2.89949
H     0.12463   2.70283  -2.72423
H     3.30808   0.20431   3.73110
H     3.77854   1.80771   3.05952
H     2.12031   1.55948   3.70051
H     2.74848  -2.76873  -1.13209
H     4.24952  -1.85564  -1.49750
H     4.04555  -2.64340   0.10879
H    -1.13590  -0.76783  -1.91666
H    -0.79181  -2.94186  -3.01353
H     0.17484  -4.86186  -1.74051
H     0.78749  -4.55969   0.66252
H     0.43857  -2.39177   1.77270
H     0.43923  -0.41679   2.70215
H    -2.02226  -1.41893   3.29066
H    -3.74820   0.59590   2.63687
H    -2.15412   2.59838   1.72365
