45
Generated by autodE on: 2022-06-11. E = -6467.660372 Ha
C    -4.06444   1.87829   2.54247
O    -3.06275   0.85699   2.70875
C    -2.63946   0.25622   1.60938
O    -3.04149   0.48345   0.49101
C    -1.62960  -0.87971   1.90357
F    -2.51414  -1.97787   1.96752
C    -0.86915  -0.85786   3.23398
C     0.50693  -0.19456   3.24089
C     0.54294   1.30653   2.96569
C     0.01127   1.81145   1.61815
C     0.50498   1.14695   0.33223
Br    2.49870   1.32599   0.31531
Br   -0.23523   2.24476  -1.16746
C     0.14104  -0.28266   0.06916
C    -0.72424  -1.09059   0.71692
C    -0.74204  -2.38626  -0.10461
C    -1.28811  -3.62873   0.43436
N    -1.65709  -4.66130   0.80373
O    -1.51994  -2.04397  -1.33853
C    -0.68597  -1.23113  -2.03820
O    -0.95688  -0.75899  -3.10286
C     0.61781  -1.12934  -1.15550
C     1.89918  -0.77878  -1.89838
O     2.93541  -1.38722  -1.76009
O     1.71435   0.23251  -2.72461
C     2.85818   0.70030  -3.45556
N     0.62506  -2.48152  -0.55244
C     0.91514  -3.60784  -1.45189
H    -4.27266   2.25914   3.54806
H    -3.67624   2.68003   1.89841
H    -4.97126   1.44815   2.09540
H    -0.73860  -1.92146   3.48537
H    -1.52595  -0.41749   3.99637
H     1.17573  -0.72580   2.54571
H     0.93335  -0.35928   4.24234
H    -0.04499   1.83286   3.73514
H     1.58161   1.65067   3.08164
H     0.27153   2.87532   1.53465
H    -1.08345   1.80188   1.59222
H     3.24975  -0.09918  -4.09966
H     2.50259   1.54252  -4.05875
H     3.64203   1.03154  -2.75957
H     0.74862  -4.54076  -0.89854
H     0.29264  -3.62193  -2.36273
H     1.96973  -3.56243  -1.73724
