26
Generated by autodE on: 2022-06-11. E = -5786.573556 Ha
C     1.82063  -3.90638  -3.82474
O     2.20198  -2.72278  -3.09814
C     1.27482  -2.17281  -2.33206
O     0.14478  -2.58763  -2.19570
C     1.77317  -0.87188  -1.68038
F     3.15757  -0.91441  -1.58499
C     1.14452  -0.66271  -0.38162
C     0.33066  -0.20619   0.39151
C    -0.74649   0.62984   0.84049
Br    0.01836   2.16854   1.85672
Br   -1.97895  -0.35319   2.05182
C    -1.51848   1.13371  -0.39352
C    -0.65201   1.70845  -1.53427
C    -0.10274   0.73061  -2.61022
C     1.38802   0.34252  -2.56759
H     1.53099  -4.70262  -3.12490
H     0.98219  -3.68244  -4.49901
H     2.70576  -4.20344  -4.39783
H    -2.24215   1.88492  -0.04548
H    -2.09786   0.27695  -0.77251
H     0.16706   2.31511  -1.11465
H    -1.30591   2.42313  -2.05569
H    -0.24757   1.21972  -3.58477
H    -0.72391  -0.17868  -2.64579
H     1.74483   0.10663  -3.58210
H     1.99422   1.18209  -2.19261
