19
Generated by autodE on: 2022-06-11. E = -681.040815 Ha
C     3.51014  -1.06251  -1.26047
O     2.15952  -0.62169  -1.06167
C     1.71135  -0.61005   0.20062
O     2.38705  -0.95048   1.15842
C     0.33772  -0.15396   0.33194
C    -0.35906  -0.07021   1.57386
O    -0.10787  -0.30065   2.73336
O    -1.66072   0.42035   1.20850
C    -1.68437   0.59374  -0.10996
C    -2.83771   1.06910  -0.76968
N    -3.79664   1.46118  -1.29958
N    -0.52731   0.26791  -0.66616
C    -0.25607   0.35286  -2.10327
H     3.68672  -1.00796  -2.34076
H     3.63441  -2.09587  -0.90616
H     4.21230  -0.40609  -0.72657
H    -1.15199   0.73462  -2.60472
H    -0.00730  -0.64538  -2.47950
H     0.58840   1.03053  -2.26790
