45
Generated by autodE on: 2022-06-11. E = -6467.610993 Ha. Imaginary frequency = -345.4 cm-1
C    -4.90354   0.02717   1.18610
O    -3.47266  -0.09640   1.27068
C    -2.98812  -0.88058   2.22185
O    -3.64492  -1.45660   3.05714
C    -1.45419  -0.97541   2.16708
F    -1.15644  -2.34242   2.30582
C    -0.85116  -0.24346   3.36881
C     0.68766  -0.26840   3.38460
C     1.36705   1.08428   3.14239
C     0.93770   1.91984   1.93063
C     0.99377   1.26103   0.54408
Br    2.81192   0.49012   0.22994
Br    0.69892   2.70656  -0.79917
C     0.00503   0.20947   0.35985
C    -0.86926  -0.52354   0.87845
C    -1.64760  -1.69082  -0.69252
C    -2.58130  -2.65481  -0.19512
N    -3.37069  -3.38870   0.23484
O    -2.18233  -0.68387  -1.44989
C    -1.13487  -0.10585  -2.17990
O    -1.32120   0.84216  -2.89279
C     0.02416  -0.94491  -1.86896
C     1.35591  -0.87257  -2.50418
O     2.17698  -1.76818  -2.47870
O     1.52983   0.29677  -3.10489
C     2.81148   0.54050  -3.69877
N    -0.44021  -2.05170  -1.22559
C     0.37359  -3.11673  -0.64550
H    -5.09593   0.68122   0.32887
H    -5.35210  -0.96299   1.02365
H    -5.30142   0.47140   2.10903
H    -1.27062  -0.74035   4.25564
H    -1.24252   0.78574   3.36792
H     1.05460  -1.01193   2.66007
H     1.02561  -0.63181   4.36654
H     1.18622   1.73142   4.01694
H     2.45564   0.92523   3.10142
H     1.56539   2.82170   1.89614
H    -0.10240   2.26287   2.04967
H     3.00873  -0.18636  -4.49945
H     2.76277   1.55609  -4.10653
H     3.60194   0.47394  -2.93771
H    -0.29232  -3.83420  -0.15294
H     0.93953  -3.61258  -1.43850
H     1.06803  -2.68607   0.09088
