35
Generated by autodE on: 2022-10-22. E = -973.856189 Ha
C     1.96445   3.06169  -1.81692
O     1.74897   1.71195  -1.37582
C     0.86705   1.54516  -0.39833
O     0.30398   2.44327   0.19270
C     0.76143   0.11225   0.03605
N    -0.41762  -0.40260   0.29609
C    -1.71032  -0.02702  -0.03632
C    -1.94498   0.74443  -1.22974
C    -3.34908   1.05057  -1.69255
O    -0.98467   1.14424  -1.91698
C    -2.67124  -0.75725   0.77911
O    -2.32346  -1.57022   1.63686
O    -3.95872  -0.48393   0.53631
C    -4.92580  -1.19461   1.31823
C     1.96643  -0.65510   0.34671
C     3.18009   0.00162   0.64316
C     4.31366  -0.73452   0.97953
C     4.26247  -2.13238   1.02008
C     3.06735  -2.79378   0.71844
C     1.92883  -2.06531   0.37980
H     2.34155   3.67958  -0.98960
H     1.02475   3.48592  -2.19805
H     2.70922   3.00126  -2.61830
H    -0.42068  -1.26166   0.86365
H    -3.89985   1.61092  -0.92315
H    -3.28066   1.64903  -2.61042
H    -3.91803   0.13081  -1.88950
H    -4.84114  -2.27823   1.15124
H    -4.79349  -0.98029   2.38875
H    -5.90548  -0.83678   0.98038
H     3.23314   1.09099   0.63021
H     5.24373  -0.21311   1.21550
H     5.15549  -2.70570   1.27854
H     3.02503  -3.88493   0.73183
H     1.01487  -2.59837   0.10896
