35
Generated by autodE on: 2022-10-26. E = -973.857481 Ha
C    -2.41881   0.13255   2.85111
O    -1.89209  -0.22572   1.56102
C    -0.92262   0.53947   1.08141
O    -0.44784   1.49894   1.65226
C    -0.52362   0.14770  -0.31305
N     0.75019   0.12243  -0.63093
C     1.92931   0.16671   0.08270
C     3.06047   0.45943  -0.77437
C     4.45743   0.50475  -0.21621
O     2.86155   0.65847  -1.98939
C     2.03309  -0.25320   1.46797
O     2.97987  -0.03278   2.21107
O     0.97299  -0.99250   1.86291
C     0.93196  -1.39783   3.23429
C    -1.53935  -0.05789  -1.34358
C    -1.24281  -0.79489  -2.51007
C    -2.19988  -0.95006  -3.51066
C    -3.47051  -0.38364  -3.36407
C    -3.77945   0.33991  -2.20682
C    -2.82795   0.50177  -1.20260
H    -2.87900   1.12969   2.80459
H    -3.17264  -0.62634   3.08688
H    -1.61954   0.12806   3.60439
H     0.98174   0.14200  -1.64021
H     5.16147   0.66675  -1.04294
H     4.55119   1.32056   0.51627
H     4.70687  -0.42603   0.31434
H     0.95514  -0.52060   3.89683
H     1.78108  -2.05550   3.47014
H    -0.01165  -1.94143   3.35886
H    -0.26932  -1.27616  -2.62192
H    -1.95667  -1.52996  -4.40353
H    -4.22151  -0.51254  -4.14658
H    -4.76921   0.78561  -2.08710
H    -3.08147   1.08158  -0.31403
