56
Generated by autodE on: 2022-10-22. E = -1460.541800 Ha. Imaginary frequency = -335.2 cm-1
C     1.78090  -2.89417   3.57961
O     1.55792  -2.55112   2.20764
C     2.00852  -1.34716   1.81516
O     2.72088  -0.65229   2.51082
C     1.65996  -1.09051   0.38340
C     2.79130  -1.17576  -0.57412
C     4.16312  -0.76942  -0.11675
O     2.58059  -1.54350  -1.73086
N     0.49323  -1.59123  -0.14573
C    -0.76758  -1.14586   0.12514
C    -1.15301  -0.92928   1.54595
O    -0.36977  -0.72062   2.45659
O    -2.47258  -0.96207   1.73873
C    -2.93885  -0.65734   3.05972
C    -1.79787  -1.45636  -0.89491
C    -1.61550  -2.51439  -1.80686
C    -2.55261  -2.76528  -2.81168
C    -3.69404  -1.96860  -2.92636
C    -3.89047  -0.91808  -2.02309
C    -2.95762  -0.66380  -1.01928
C    -0.30398   1.18500   0.07617
O    -1.19474   1.64088   1.00818
C    -0.75772   2.39797   2.14097
C    -0.57087   1.61194  -1.36170
C    -0.19888   3.12603  -1.39806
C     1.34773   3.10619  -1.22837
C     1.67381   1.58268  -1.13831
C     0.62426   1.00182  -2.10469
C     1.11624   1.12496   0.19815
F     1.74030   1.59897   1.30395
H     1.30054  -2.15801   4.24051
H     1.32645  -3.88168   3.72289
H     2.85709  -2.93739   3.80215
H     4.81517  -0.65606  -0.99201
H     4.13079   0.15940   0.46765
H     4.57609  -1.55216   0.54123
H     0.64607  -1.83276  -1.12948
H    -2.62817   0.35508   3.35342
H    -4.03206  -0.71961   3.01198
H    -2.54743  -1.38569   3.78419
H    -0.74879  -3.17305  -1.72202
H    -2.39050  -3.59699  -3.50114
H    -4.42782  -2.16529  -3.71127
H    -4.77641  -0.28394  -2.10397
H    -3.11599   0.16818  -0.33598
H    -0.15884   1.78736   2.82908
H    -1.67391   2.72761   2.64864
H    -0.18114   3.28140   1.82721
H    -1.57302   1.37909  -1.73789
H    -0.49419   3.55788  -2.36586
H    -0.71453   3.68851  -0.60745
H     1.85923   3.54137  -2.09935
H     1.69182   3.64316  -0.33328
H     2.72564   1.33814  -1.32286
H     0.61130  -0.08975  -2.16295
H     0.73619   1.40481  -3.12126
