41
Generated by autodE on: 2022-06-17. E = -770.875684 Ha
C    -3.85166  -1.88351  -0.19820
C    -2.57436  -1.77545   0.19312
C    -2.10307  -2.19921   1.55680
C    -1.52300  -1.21950  -0.74941
C    -0.36916  -2.18635  -0.96180
C    -0.52821  -3.50946  -1.61962
N     0.74659  -1.76168  -0.48515
N     0.56829  -0.52256   0.07398
C     1.62535   0.17206   0.63011
C     2.93273  -0.36566   0.63444
C     3.98284   0.34045   1.21896
C     3.77305   1.59218   1.81066
C     2.47944   2.12464   1.81000
C     1.41365   1.43365   1.23220
C    -0.77298   0.03797  -0.21513
C    -0.69648   1.13343  -1.24036
C    -1.19520   2.37894  -1.14644
C    -1.92625   2.91881   0.05244
C    -1.03844   3.35836  -2.27870
H    -4.16832  -1.57155  -1.19812
H    -4.61935  -2.28579   0.46996
H    -2.92738  -2.60673   2.15921
H    -1.31533  -2.96792   1.47993
H    -1.66109  -1.35245   2.10849
H    -2.00564  -0.99471  -1.71188
H    -0.90005  -3.38659  -2.65129
H     0.42544  -4.05432  -1.64535
H    -1.27595  -4.12063  -1.08624
H     3.10580  -1.33815   0.17628
H     4.98471  -0.09743   1.20832
H     4.60133   2.14018   2.26467
H     2.28848   3.09792   2.26993
H     0.41749   1.87158   1.25529
H    -1.22755   0.39827   0.71569
H    -0.17720   0.84593  -2.16260
H    -2.04865   2.18670   0.86094
H    -2.92993   3.27276  -0.23993
H    -1.39426   3.79714   0.45764
H    -0.49326   2.92420  -3.12963
H    -0.49719   4.25935  -1.93976
H    -2.02398   3.70598  -2.63537
