23
Generated by autodE on: 2022-06-17. E = -351.521380 Ha
C     3.63794  -0.92678  -0.45112
C     2.56808  -0.29534   0.08041
C     2.72399   0.70681   1.19555
C     1.22725  -0.57774  -0.42813
C     0.07722  -0.00952   0.01389
C    -1.22831  -0.32527  -0.52888
C    -2.41956   0.20564  -0.15395
C    -2.58626   1.24522   0.91783
C    -3.69689  -0.22806  -0.81585
H     3.52133  -1.65349  -1.26106
H     4.65225  -0.73426  -0.09059
H     2.33504   1.69505   0.89865
H     2.15389   0.40032   2.08830
H     3.77869   0.82292   1.48226
H     1.16777  -1.31504  -1.23786
H     0.12788   0.72654   0.82081
H    -1.23910  -1.07541  -1.32896
H    -3.25747   0.87203   1.71149
H    -3.07460   2.14487   0.50326
H    -1.64238   1.55406   1.38515
H    -3.52638  -0.99039  -1.59016
H    -4.20914   0.63360  -1.28063
H    -4.40384  -0.63750  -0.07194
