41
Generated by autodE on: 2022-06-17. E = -770.796765 Ha. Imaginary frequency = -378.2 cm-1
C    -3.50891  -3.01829  -0.87942
C    -2.85383  -2.08131  -0.16522
C    -3.06265  -1.93317   1.31963
C    -1.87869  -1.18182  -0.81741
C    -0.10287  -2.39662  -0.51809
C    -0.15722  -3.69373  -1.20557
N     0.57662  -1.80582   0.29287
N     0.56708  -0.78906   1.08082
C     1.54182   0.17466   0.86887
C     2.45438   0.15825  -0.20996
C     3.35172   1.21017  -0.39067
C     3.36284   2.30170   0.48695
C     2.46150   2.32226   1.55958
C     1.56393   1.27483   1.75135
C    -1.52962   0.06017  -0.28770
C    -0.80594   1.04165  -1.04780
C    -0.54907   2.32935  -0.69201
C    -1.09520   2.98278   0.54634
C     0.29568   3.21194  -1.56157
H    -3.34768  -3.12614  -1.95629
H    -4.22259  -3.69901  -0.40692
H    -3.51261  -0.95680   1.56546
H    -3.72347  -2.72017   1.70965
H    -2.10171  -1.97950   1.85772
H    -1.77141  -1.30880  -1.90034
H    -0.33650  -3.54909  -2.28172
H     0.77961  -4.25152  -1.05838
H    -0.99590  -4.28620  -0.80812
H     2.45148  -0.68603  -0.90217
H     4.04983   1.17970  -1.23148
H     4.06650   3.12363   0.33883
H     2.45516   3.16843   2.25137
H     0.84972   1.29437   2.57686
H    -1.89199   0.33506   0.70221
H    -0.39019   0.69159  -2.00031
H    -1.50345   2.26871   1.27333
H    -1.90419   3.68612   0.27433
H    -0.31801   3.58104   1.04706
H     0.58668   2.71606  -2.49921
H     1.21865   3.50308  -1.02647
H    -0.22877   4.15299  -1.80660
