23
Generated by autodE on: 2022-06-21. E = -351.521381 Ha
C     3.46145  -1.52266  -0.01109
C     2.44860  -0.72930   0.40192
C     2.60888   0.19486   1.58195
C     1.16658  -0.75745  -0.29942
C     0.07532  -0.01588   0.01704
C    -1.17427  -0.08370  -0.71285
C    -2.30788   0.61825  -0.46014
C    -3.53100   0.43612  -1.31374
C    -2.45958   1.61502   0.65366
H     3.34222  -2.19296  -0.86794
H     4.43048  -1.52196   0.49573
H     2.43620   1.24439   1.29097
H     3.61645   0.11760   2.01429
H     1.87452  -0.03695   2.37125
H     1.10182  -1.44484  -1.15151
H     0.13208   0.67159   0.86540
H    -1.19096  -0.78251  -1.55805
H    -4.39111   0.11112  -0.70104
H    -3.83143   1.39349  -1.77644
H    -3.37422  -0.30269  -2.11332
H    -3.29406   1.32353   1.31569
H    -1.55880   1.73060   1.26992
H    -2.72629   2.60589   0.24519
