27
Generated by autodE on: 2022-06-21. E = -690.436479 Ha
C    -2.97619  -1.84758   1.75243
C    -1.69359  -2.47616   1.26216
O    -1.46392  -3.68788   1.38509
C    -0.71396  -1.63456   0.62440
O    -0.97519  -0.35394   0.55101
C    -0.30639   0.67498   0.08425
C    -0.98810   1.95182   0.32270
C    -2.28754   1.92394   1.09030
O    -0.50325   3.00612  -0.09130
C     0.97530   0.54353  -0.60788
C     1.19128  -0.46683  -1.56899
C     2.40734  -0.55021  -2.24566
C     3.43098   0.36280  -1.97139
C     3.22798   1.36848  -1.02052
C     2.01158   1.46478  -0.34652
H    -3.58953  -2.61805   2.23713
H    -3.53599  -1.40630   0.91246
H    -2.76796  -1.03507   2.46568
H     0.22328  -2.03057   0.23296
H    -2.68386   2.94552   1.14699
H    -3.02208   1.26497   0.60327
H    -2.12526   1.53328   2.10718
H     0.39702  -1.17358  -1.81391
H     2.55459  -1.33141  -2.99465
H     4.38502   0.29066  -2.49848
H     4.02478   2.08232  -0.79996
H     1.86007   2.24879   0.39441
