57
Generated by autodE on: 2022-06-09. E = -1622.988285 Ha
C     2.35610  -2.44972   1.85875
O     1.87305  -1.29646   1.15896
C     2.14178  -1.18343  -0.13319
O     2.84375  -1.95997  -0.74653
C     1.39862   0.00646  -0.79540
C     2.41964   0.72394  -1.73141
C     1.92813   1.32439  -3.01525
O     3.59032   0.77797  -1.40735
N     0.25430  -0.48209  -1.54362
C     0.45255  -1.44248  -2.62775
C    -0.96108  -0.52153  -0.76511
C    -2.24069  -0.18037  -1.60357
C    -2.10255   0.13253  -3.06333
O    -3.31860  -0.14814  -1.04486
C    -1.13812  -1.95902  -0.15944
O    -0.23311  -2.76451  -0.15233
O    -2.35927  -2.22463   0.27774
C    -2.55173  -3.49267   0.92359
C    -0.76372   0.59808   0.35646
C    -1.23744   0.07441   1.71445
O    -0.86482  -0.96031   2.22558
O    -2.19394   0.83644   2.23389
C    -2.72174   0.43295   3.50612
C    -1.43692   1.97781  -0.05906
C    -1.14145   3.04041   0.98486
C     0.13781   3.37687   0.79870
C     0.61160   2.48901  -0.33645
O    -0.56371   2.36129  -1.12878
C     0.76804   0.99575   0.24927
C     1.51046   1.13656   1.58924
C     2.97880   1.45181   1.56553
O     0.88463   1.17623   2.63321
H     3.45394  -2.48460   1.82538
H     1.93706  -3.35922   1.40727
H     2.00555  -2.33840   2.89075
H     2.03007   0.56105  -3.80457
H     0.87481   1.62029  -2.97072
H     2.57356   2.17206  -3.28196
H    -0.34917  -2.19108  -2.63322
H     1.39729  -1.98767  -2.50819
H     0.45724  -0.95169  -3.61245
H    -3.01022   0.65200  -3.39630
H    -2.01037  -0.80917  -3.62729
H    -1.20792   0.73090  -3.26824
H    -1.91441  -3.55509   1.81706
H    -3.60989  -3.52752   1.20591
H    -2.31001  -4.31527   0.23644
H    -1.92114   0.42368   4.25935
H    -3.48293   1.17720   3.76537
H    -3.17142  -0.56705   3.43118
H    -2.47355   1.90561  -0.38554
H    -1.84200   3.38756   1.74030
H     0.76711   4.05452   1.37364
H     1.46820   2.84887  -0.91184
H     3.54944   0.85754   0.84479
H     3.38396   1.33980   2.57927
H     3.08385   2.50809   1.26098
