33
Generated by autodE on: 2022-06-09. E = -934.713577 Ha
C    -3.45561   0.43502  -1.98177
O    -2.78018   0.15258  -0.74513
C    -1.50210  -0.19476  -0.82719
O    -0.89056  -0.34536  -1.86240
C    -0.94900  -0.49654   0.53506
C    -1.88198  -1.11691   1.54526
C    -2.82157  -2.18373   1.05906
O    -1.85478  -0.74276   2.70451
N     0.33079  -0.32227   0.78987
C     0.92403  -0.90398   2.01894
C     1.11776   0.57400   0.05476
C     0.52265   1.85086  -0.27914
C     1.39976   2.97500  -0.77583
O    -0.69599   2.05512  -0.13710
C     2.47517   0.19588  -0.30510
O     3.36280   0.95013  -0.68109
O     2.66010  -1.14454  -0.24938
C     3.97776  -1.62035  -0.53817
H    -4.48364   0.69656  -1.70853
H    -3.44450  -0.44975  -2.63362
H    -2.96642   1.27823  -2.48956
H    -2.43940  -2.69856   0.16612
H    -2.98698  -2.90047   1.87543
H    -3.78895  -1.72308   0.80283
H     0.59971  -1.94443   2.13397
H     0.59309  -0.30783   2.87634
H     2.01050  -0.85954   1.93984
H     2.25074   3.16070  -0.10748
H     1.81737   2.71647  -1.76109
H     0.77898   3.87590  -0.86600
H     4.71242  -1.18466   0.15520
H     4.26411  -1.37247  -1.57082
H     3.94008  -2.70883  -0.41057
