57
Generated by autodE on: 2022-06-09. E = -1622.911318 Ha. Imaginary frequency = -223.2 cm-1
C     3.22756  -2.84035   1.06372
O     2.69525  -1.62779   0.52240
C     1.96065  -1.72463  -0.56893
O     1.80004  -2.75018  -1.20094
C     1.45053  -0.39899  -1.10802
C     2.59837   0.34716  -1.72838
C     2.46825   1.55624  -2.62165
O     3.73128  -0.04087  -1.44738
N     0.17600  -0.40420  -1.63480
C    -0.09009   0.13156  -2.98973
C    -0.92542  -0.70602  -0.88535
C    -2.27751  -0.63301  -1.62186
C    -2.69807  -1.86247  -2.39069
O    -2.96615   0.36257  -1.57153
C    -0.95664  -1.72155   0.20859
O    -0.02180  -2.22161   0.79383
O    -2.23341  -1.99816   0.49628
C    -2.48436  -2.94899   1.54446
C    -0.64729   0.97529   0.66775
C    -1.60963   0.54255   1.70991
O    -1.40630  -0.17304   2.67029
O    -2.81834   1.07827   1.46026
C    -3.87664   0.72751   2.35897
C    -1.03828   2.27860  -0.09870
C    -0.82143   3.41971   0.90794
C     0.50719   3.51453   1.03386
C     1.07394   2.43661   0.09399
O     0.09635   2.44102  -0.95015
C     0.77192   1.05896   0.75836
C     1.68228   0.55150   1.81642
C     3.05320   1.18299   1.86059
O     1.36200  -0.30342   2.63119
H     3.93447  -3.30043   0.35813
H     2.41348  -3.54510   1.28444
H     3.74292  -2.55480   1.98788
H     2.60417   1.22409  -3.66385
H     1.52218   2.09362  -2.54498
H     3.30918   2.22258  -2.38411
H    -0.85795  -0.48780  -3.46541
H     0.80583   0.02816  -3.60195
H    -0.42421   1.17276  -2.95008
H    -3.50815  -2.35385  -1.82993
H    -1.87804  -2.58086  -2.52487
H    -3.10283  -1.55269  -3.36496
H    -2.05749  -2.58744   2.48808
H    -3.57439  -3.02665   1.61912
H    -2.04767  -3.92216   1.27993
H    -3.63048   1.02926   3.38706
H    -4.76217   1.26888   2.00643
H    -4.05893  -0.35673   2.32951
H    -1.97248   2.24191  -0.65742
H    -1.61270   3.94916   1.43683
H     1.10301   4.14626   1.69152
H     2.08587   2.59893  -0.28038
H     3.54919   1.11252   0.88164
H     3.65911   0.67752   2.62325
H     2.97435   2.25305   2.11369
