19
Generated by autodE on: 2022-07-27. E = -585.872563 Ha
C    -0.03512   2.81705   1.00056
O     0.35493   1.61611   0.31257
C    -0.23021   1.36893  -0.85321
O    -0.98258   2.12739  -1.42977
C     0.21282   0.07611  -1.45100
C     0.40224   0.04545  -2.92731
N     0.41952  -1.00525  -0.73958
C     0.16511  -1.35165   0.57932
C    -0.69164  -0.61740   1.41799
N    -1.42342  -0.05633   2.13660
C     0.70255  -2.56625   1.04707
N     1.14351  -3.57241   1.44859
H    -1.11315   2.79688   1.21117
H     0.53640   2.82516   1.93482
H     0.21046   3.69805   0.39134
H     0.81695  -0.91581  -3.26076
H    -0.56968   0.20577  -3.42380
H     1.06661   0.86396  -3.24638
H     0.81046  -1.78637  -1.27704
