19
Generated by autodE on: 2022-06-22. E = -585.881489 Ha
C     4.15061  -0.18552   0.70619
O     2.91283   0.44405   0.33588
C     1.82295  -0.30947   0.38230
O     1.80638  -1.48433   0.71723
C     0.59415   0.42086  -0.02100
C     0.56870   1.84733  -0.42888
N    -0.46935  -0.34800   0.02994
C    -1.79541  -0.13932  -0.24487
C    -2.68005  -1.22253  -0.04878
N    -3.42501  -2.10841   0.10899
C    -2.32813   1.08108  -0.71412
N    -2.84759   2.05097  -1.10612
H     4.10028  -0.53911   1.74583
H     4.36010  -1.03309   0.03826
H     4.92205   0.58510   0.60063
H     0.20221   1.95286  -1.46271
H     1.57471   2.27374  -0.36743
H    -0.10355   2.42754   0.22353
H    -0.24272  -1.30407   0.34473
