26
Generated by autodE on: 2022-06-22. E = -689.460853 Ha
C     2.95137  -0.45385   1.27386
O     2.24728  -0.74497   0.06205
C     0.93660  -0.36260   0.02889
C     0.48765   0.69312  -0.70697
O     1.17530   1.54615  -1.46539
C     2.60030   1.49639  -1.59076
C    -0.98553   1.00291  -0.74885
O    -1.37172   1.93969  -1.43438
C    -1.92953   0.17832   0.04778
C    -3.38141   0.54225   0.00062
C    -1.47118  -0.86774   0.77915
C    -2.38695  -1.73044   1.58841
C    -0.01473  -1.20205   0.78812
O     0.40257  -2.17503   1.41407
H     3.98105  -0.80759   1.13084
H     2.50281  -0.97360   2.13339
H     2.96165   0.63195   1.46605
H     2.85929   2.32490  -2.26211
H     3.08755   1.64745  -0.61709
H     2.92517   0.54481  -2.03091
H    -3.98011  -0.29357  -0.39796
H    -3.54988   1.42521  -0.62700
H    -3.76430   0.74823   1.01356
H    -3.16242  -2.18293   0.94845
H    -1.83462  -2.53088   2.09414
H    -2.91753  -1.13021   2.34621
