45
Generated by autodE on: 2022-06-22. E = -1275.315090 Ha. Imaginary frequency = -365.3 cm-1
C     1.07335   3.06543   1.60113
O     1.36845   1.75835   1.08445
C     1.52228   1.61529  -0.21886
O     1.48892   2.52699  -1.02012
C     1.77679   0.18203  -0.62277
C     2.64692   0.08691  -1.84330
N     2.02874  -0.75305   0.35368
C     1.13633  -1.12039   1.36801
C     0.75408  -0.30988   2.47763
N     0.35316   0.21842   3.43629
C     1.14176  -2.51246   1.67147
N     1.10858  -3.65978   1.86988
C    -0.77693  -1.07839  -0.10822
O    -0.98538  -2.39591  -0.17566
C    -1.92521  -3.09678   0.65336
C    -1.60788  -0.17488   0.73823
O    -2.15969  -0.57413   1.75791
C    -1.76600   1.24512   0.31697
C    -2.44353   2.12304   1.32081
C    -1.38560   1.66421  -0.91845
C    -1.64364   3.04794  -1.43421
C    -0.66556   0.72969  -1.83296
O    -0.48946   0.99359  -3.01675
C    -0.09495  -0.52426  -1.26063
O     0.36107  -1.45669  -2.16325
C    -0.59835  -1.99984  -3.08049
H     0.17334   3.46888   1.11987
H     0.90556   2.92528   2.67451
H     1.92579   3.73655   1.42699
H     2.15480   0.58972  -2.68549
H     3.60644   0.59650  -1.65946
H     2.83378  -0.96024  -2.10816
H     2.51544  -1.56565  -0.02489
H    -1.68038  -2.99590   1.71560
H    -2.94524  -2.73151   0.46810
H    -1.84273  -4.14535   0.34261
H    -1.97782   1.98884   2.30893
H    -3.50352   1.83867   1.43054
H    -2.39444   3.18138   1.04222
H    -1.12864   3.79928  -0.81592
H    -1.28991   3.14634  -2.46705
H    -2.71901   3.28278  -1.40583
H    -0.71445  -1.34182  -3.95399
H    -1.57688  -2.14565  -2.60021
H    -0.20828  -2.97486  -3.40298
