44
Generated by autodE on: 2022-06-01. E = -3607.416035 Ha
C    -4.64119   1.32662  -0.49861
N    -3.56845   0.37736  -0.27722
C    -2.27802   0.77554  -0.25254
O    -1.97109   1.95158  -0.43577
C    -1.27399  -0.32819   0.12711
C    -1.63072  -1.70610  -0.52115
C    -1.72142  -1.54020  -2.05610
C    -0.23552  -1.41757  -2.48461
C     0.51863  -1.46552  -1.14205
C    -0.32506  -2.50449  -0.38193
C     0.24969  -0.17311  -0.32160
Br    0.82199   1.39006  -1.38228
C     1.03846  -0.16132   1.05372
C     1.46045   1.18995   1.50569
N     1.81292   2.18247   1.99113
C     2.31487  -1.03766   0.99540
O     2.38706  -2.13710   1.48543
O     3.27471  -0.42131   0.32950
C     4.50344  -1.14566   0.13170
O     0.17986  -0.72981   1.99487
C    -1.19986  -0.37230   1.71369
C    -1.50157   0.97797   2.37351
C    -2.05175  -1.45155   2.36636
H    -4.63132   2.12186   0.26433
H    -5.59998   0.79617  -0.44660
H    -4.55417   1.80616  -1.48678
H    -3.80264  -0.59444  -0.11336
H    -2.51813  -2.17280  -0.08067
H    -2.32105  -0.67245  -2.35883
H    -2.19455  -2.43074  -2.49388
H    -0.02320  -0.50921  -3.06006
H     0.08071  -2.27791  -3.09127
H     1.58860  -1.67145  -1.26124
H    -0.00693  -2.68730   0.64829
H    -0.36417  -3.46362  -0.91831
H     5.15103  -0.48062  -0.44964
H     4.30573  -2.07368  -0.42280
H     4.96268  -1.38056   1.10184
H    -1.17448   0.93262   3.42192
H    -2.58192   1.17630   2.35753
H    -1.00072   1.81647   1.87826
H    -3.11250  -1.29205   2.12956
H    -1.76249  -2.45892   2.04457
H    -1.93249  -1.39090   3.45812
