24
Generated by autodE on: 2022-06-01. E = -3054.571181 Ha
C     3.75733   0.35972   1.84478
N     2.32709   0.54523   1.71613
C     1.70818   0.44586   0.51476
O     2.34234   0.21599  -0.52316
C     0.23957   0.63623   0.54117
C    -0.68228   0.17174  -0.33198
Br   -0.44434  -0.90155  -1.86173
C    -2.06820   0.44030   0.21771
C    -2.23095  -0.53077   1.43303
C    -1.20168   0.02147   2.45953
C    -0.57129   1.23113   1.69814
C    -1.80088   1.77367   0.94377
H     4.06475  -0.65323   1.53618
H     4.04332   0.50988   2.89303
H     4.30960   1.08013   1.22061
H     1.77612   0.69329   2.55367
H    -2.88185   0.40276  -0.51574
H    -3.25935  -0.46961   1.81799
H    -2.03974  -1.57406   1.14452
H    -1.69782   0.37097   3.37698
H    -0.43937  -0.71622   2.74685
H    -0.02699   1.94154   2.33299
H    -1.55696   2.59656   0.25651
H    -2.62262   2.07190   1.61225
