20
Generated by autodE on: 2022-06-01. E = -552.779151 Ha
C     3.22920  -1.07526   0.74939
O     1.82596  -0.86872   0.56847
C     1.46941   0.26285  -0.08118
O     2.29192   1.07652  -0.49738
C     0.04906   0.41690  -0.23313
C    -0.46863   1.53962  -0.89233
N    -0.82797   2.50208  -1.45551
O    -0.71701  -0.60180   0.29323
C    -1.97232  -0.81013   0.36881
C    -2.97508   0.13322  -0.16569
C    -2.36054  -2.06944   1.03799
H     3.74698  -1.13694  -0.21960
H     3.32833  -2.02653   1.28641
H     3.67414  -0.26249   1.34287
H    -2.82824   0.27356  -1.24936
H    -2.85804   1.12049   0.31155
H    -3.98668  -0.24567   0.01996
H    -3.00839  -1.83537   1.90068
H    -1.48065  -2.63671   1.36463
H    -2.97216  -2.67361   0.34554
