44
Generated by autodE on: 2022-06-01. E = -3607.345778 Ha. Imaginary frequency = -311.2 cm-1
C    -4.72148   1.26449  -0.29271
N    -3.61282   0.33280  -0.32034
C    -2.32913   0.77020  -0.33474
O    -2.07054   1.97884  -0.37046
C    -1.28725  -0.29608  -0.29598
C    -1.61915  -1.75167  -0.68349
C    -1.73258  -1.76114  -2.23939
C    -0.26110  -1.54561  -2.69189
C     0.51037  -1.43349  -1.33636
C    -0.26975  -2.45886  -0.49270
C     0.04007  -0.12354  -0.72746
Br    0.80189   1.46570  -1.42907
C     1.23962  -0.17418   1.49111
C     1.52548   1.19115   1.72569
N     1.81423   2.31058   1.88819
C     2.34242  -1.08649   1.20489
O     2.30837  -2.29867   1.34740
O     3.40550  -0.42835   0.71233
C     4.53130  -1.22616   0.32916
O     0.16399  -0.79706   2.04221
C    -1.07691  -0.35385   2.06485
C    -1.36348   1.07333   2.39094
C    -2.05323  -1.39250   2.49352
H    -4.69838   1.89382   0.61271
H    -5.66122   0.69850  -0.30550
H    -4.70038   1.93437  -1.16667
H    -3.80433  -0.65767  -0.23059
H    -2.47532  -2.19574  -0.16204
H    -2.41287  -0.98180  -2.60854
H    -2.11938  -2.73351  -2.57821
H    -0.12425  -0.65291  -3.31703
H     0.12419  -2.41149  -3.24969
H     1.59692  -1.54609  -1.42186
H     0.05880  -2.53345   0.54539
H    -0.25476  -3.45941  -0.94889
H     5.28169  -0.52431  -0.05315
H     4.24910  -1.94188  -0.45686
H     4.93254  -1.77432   1.19417
H    -0.97265   1.26130   3.40710
H    -2.44732   1.23728   2.40333
H    -0.90640   1.78749   1.70074
H    -3.03720  -1.18369   2.05301
H    -1.71880  -2.39912   2.21538
H    -2.17041  -1.34292   3.59123
