50
Generated by autodE on: 2022-06-24. E = -1391.021131 Ha
C     2.35996   1.70496   3.23703
O     1.86682   0.78404   2.24991
C     1.41235   1.30984   1.12105
O     1.44144   2.49445   0.85916
C     0.89566   0.23970   0.14630
C     2.05011  -0.19906  -0.74537
C     2.77338   0.75746  -1.47433
C     3.80554   0.35959  -2.32610
C     4.13233  -0.99420  -2.45363
C     3.42425  -1.94687  -1.71660
C     2.38829  -1.55234  -0.86508
O     0.41611  -0.88314   0.89202
C    -1.00205  -0.95536   0.84489
C    -1.38440  -2.37016   0.98319
N    -1.67375  -3.48854   1.06773
C    -1.55297  -0.11968   2.02975
O    -1.24115   1.04068   2.18714
O    -2.26186  -0.83770   2.88076
C    -2.81066  -0.14357   4.01537
C    -1.36614  -0.38204  -0.55449
C    -2.81233   0.10033  -0.59755
N    -3.23725   0.57833  -1.77491
O    -3.52547   0.05634   0.41125
C    -1.07755  -1.44282  -1.64986
C    -0.68926  -0.82390  -2.95760
C    -0.25128   0.44922  -3.04330
N    -0.11356   1.29446  -1.96436
C    -0.10237   2.73254  -2.17006
C    -0.35764   0.80533  -0.64209
H     3.19756   2.29011   2.83203
H     2.69477   1.09068   4.08033
H     1.55389   2.38209   3.55387
H     2.53345   1.81598  -1.37724
H     4.35715   1.11340  -2.89263
H     4.93969  -1.30405  -3.12127
H     3.67601  -3.00647  -1.80295
H     1.83791  -2.29822  -0.29290
H    -3.50723   0.63390   3.67083
H    -3.34065  -0.90145   4.60229
H    -2.00560   0.31169   4.60846
H    -4.20563   0.87358  -1.86238
H    -2.65899   0.51405  -2.60968
H    -1.96581  -2.08322  -1.76611
H    -0.27453  -2.10896  -1.29432
H    -0.74049  -1.43313  -3.86080
H     0.01138   0.89500  -4.00588
H     0.47749   3.22213  -1.37683
H     0.37268   2.95797  -3.13539
H    -1.12221   3.16066  -2.17534
H    -0.75723   1.63386  -0.05095
