20
Generated by autodE on: 2022-06-24. E = -457.715326 Ha
C     3.10638  -0.63744   0.21958
N     1.81891   0.03765   0.20555
C     1.77121   1.43513   0.28495
C     0.62202   2.12573   0.21908
C    -0.72617   1.46896   0.05375
C    -0.57305  -0.03960  -0.05196
C    -1.74106  -0.91455  -0.24139
N    -2.94716  -0.29506  -0.29698
O    -1.66152  -2.15525  -0.35118
C     0.64936  -0.63767   0.02619
H     2.94586  -1.72262   0.23505
H     3.70382  -0.38271  -0.67191
H     3.68350  -0.35618   1.11441
H     2.74054   1.92203   0.40678
H     0.66538   3.21485   0.29189
H    -1.24060   1.87784  -0.83980
H    -1.38865   1.74170   0.90105
H    -3.77847  -0.86213  -0.42198
H    -3.05463   0.70631  -0.19707
H     0.73238  -1.72274  -0.05290
