50
Generated by autodE on: 2022-06-24. E = -1390.940597 Ha. Imaginary frequency = -344.9 cm-1
C     2.02372   1.61079   3.52233
O     1.76939   0.65212   2.48482
C     1.44449   1.14212   1.28656
O     1.50277   2.32174   0.99953
C     1.14529   0.02832   0.32589
C     2.13241  -0.27546  -0.70385
C     2.94810   0.73760  -1.24923
C     3.80391   0.45933  -2.31522
C     3.87884  -0.83144  -2.84437
C     3.09334  -1.85207  -2.29121
C     2.22721  -1.58136  -1.23823
O     0.51596  -1.06769   0.80495
C    -0.76879  -1.14224   1.18707
C    -1.29641  -2.45724   1.08194
N    -1.74217  -3.52510   0.93849
C    -1.37987  -0.19090   2.12822
O    -0.93509   0.91083   2.39470
O    -2.53931  -0.66355   2.59605
C    -3.33062   0.23019   3.39473
C    -1.47649  -0.09242  -0.87795
C    -2.82202   0.16675  -0.28991
N    -3.73820  -0.82434  -0.37066
O    -3.09997   1.25895   0.23096
C    -1.23203  -1.21825  -1.86246
C    -0.60794  -0.69023  -3.12890
C     0.01154   0.49915  -3.17873
N     0.06705   1.35887  -2.08312
C     0.60130   2.70511  -2.24973
C    -0.60292   1.02887  -0.93869
H     2.89005   2.23664   3.26490
H     2.23200   1.02752   4.42653
H     1.14001   2.24656   3.67372
H     2.90412   1.74693  -0.84480
H     4.41782   1.26041  -2.73285
H     4.54989  -1.04603  -3.67904
H     3.15483  -2.86696  -2.69055
H     1.61485  -2.37825  -0.81769
H    -3.57836   1.13016   2.81667
H    -4.24145  -0.32402   3.64768
H    -2.78721   0.50808   4.30905
H    -4.62010  -0.67809   0.11077
H    -3.48292  -1.77774  -0.59895
H    -2.16572  -1.74609  -2.10271
H    -0.56934  -1.98720  -1.41724
H    -0.63738  -1.31498  -4.02348
H     0.49281   0.87693  -4.08179
H     0.92823   3.09173  -1.27859
H     1.46431   2.67987  -2.92742
H    -0.16023   3.38490  -2.67028
H    -0.78855   1.85713  -0.25696
