65
Generated by autodE on: 2022-10-25. E = -2075.021100 Ha
C     4.79030  -8.71547   2.52326
N     4.54777  -7.35467   2.96535
C     4.14626  -7.08975   4.21679
O     3.98880  -7.97938   5.05615
C     3.67723  -5.63522   4.51709
C     4.36749  -4.48251   3.77646
C     5.63028  -4.55072   3.17198
C     6.17039  -3.43719   2.52085
C     5.46209  -2.23622   2.46698
C     4.19939  -2.15903   3.06354
C     3.65756  -3.27238   3.70372
O     2.34644  -5.68982   3.98375
C     1.37803  -5.76102   5.01653
C     0.32321  -4.72759   4.57168
C    -0.62655  -5.19642   3.51295
O     0.36438  -3.57572   4.96729
C     2.12162  -5.46506   6.30043
C     3.45762  -5.42292   6.05462
C     4.64719  -5.16085   7.02732
C     5.90470  -6.03281   6.73147
F     6.95559  -5.57180   7.43933
F     5.73421  -7.31019   7.07971
F     6.29495  -6.03578   5.44681
C     5.10113  -3.65173   6.88107
F     5.95618  -3.45334   5.86620
F     5.72371  -3.18942   7.97640
F     4.04683  -2.85216   6.67896
C     4.36451  -5.34432   8.55485
C     3.94407  -6.70602   9.12093
C     2.83153  -7.46431   8.41151
C     1.47212  -6.77990   8.39128
C     1.31751  -5.42875   7.61472
O     1.68267  -4.37061   8.47349
C     1.42911  -3.04446   8.01812
C    -0.22415  -5.40208   7.41646
O    -0.83315  -5.90869   6.49627
O    -0.82712  -4.86837   8.46967
C    -2.26509  -4.89077   8.47277
H     5.18963  -8.68991   1.50212
H     3.86404  -9.31332   2.53001
H     5.52031  -9.21280   3.17925
H     4.58523  -6.60432   2.28477
H     6.22085  -5.46208   3.21142
H     7.15678  -3.51554   2.05788
H     5.88875  -1.36595   1.96275
H     3.63103  -1.22659   3.02951
H     2.67256  -3.19715   4.16272
H     0.93053  -6.76720   5.04737
H    -1.30277  -4.38530   3.21395
H    -0.03968  -5.53690   2.64368
H    -1.19724  -6.06229   3.87906
H     3.61287  -4.60033   8.81836
H     5.28654  -5.05991   9.07265
H     4.82038  -7.36434   9.19551
H     3.62962  -6.50600  10.15968
H     3.13505  -7.72935   7.38932
H     2.68619  -8.42220   8.93780
H     0.75381  -7.48602   7.94944
H     1.12618  -6.56415   9.41396
H     1.69265  -2.91768   6.96166
H     0.36983  -2.77544   8.15616
H     2.05154  -2.37804   8.63037
H    -2.62857  -5.92746   8.44111
H    -2.56895  -4.40585   9.40699
H    -2.65436  -4.33598   7.60777
