29
Generated by autodE on: 2022-10-25. E = -745.831714 Ha
C    -1.99233   1.31343   2.06307
N    -2.14640   1.68754   0.66711
C    -1.40545   1.27959  -0.37260
O    -1.53764   1.70976  -1.52407
C    -0.34092   0.24261  -0.11572
O     0.88430   0.54310  -0.41150
C     1.43866   1.68746  -0.81460
C     2.84307   1.68606  -1.03436
C     3.60874   0.39712  -0.80328
O     3.42646   2.72435  -1.40987
C    -0.60796  -1.11996   0.28279
C    -1.93762  -1.57684   0.43068
C    -2.19173  -2.89113   0.81685
C    -1.13435  -3.77347   1.06210
C     0.18782  -3.33161   0.91369
C     0.45449  -2.02251   0.52847
H    -2.15136   2.20075   2.69128
H    -2.71424   0.53784   2.36273
H    -0.97711   0.94195   2.24944
H    -2.88750   2.34609   0.43129
H     0.80803   2.56552  -0.95322
H     4.66905   0.56965  -1.03064
H     3.22505  -0.41326  -1.44259
H     3.51076   0.06232   0.24176
H    -2.77369  -0.90492   0.23169
H    -3.22447  -3.22983   0.92395
H    -1.33755  -4.80236   1.36695
H     1.01705  -4.01665   1.10405
H     1.48486  -1.68198   0.41949
