36
Generated by autodE on: 2022-10-25. E = -1329.087455 Ha
C    -3.32668   0.15988   2.66431
O    -2.54932   0.07270   1.45714
C    -3.21625   0.03562   0.31093
O    -4.42310   0.05038   0.21670
C    -2.29040   0.04719  -0.93129
O    -2.94000  -0.58373  -2.00893
C    -3.13227  -1.98356  -1.86389
C    -0.95773  -0.48561  -0.61702
C     0.20063  -0.45374  -0.27132
C     1.49977   0.09086   0.10750
C     2.56352  -0.29732  -0.94713
F     2.64607  -1.62474  -1.10992
F     3.78116   0.14656  -0.60716
F     2.26103   0.23062  -2.14106
C     1.90374  -0.45128   1.50080
F     0.91938  -0.22764   2.38355
F     2.13045  -1.77190   1.48224
F     3.00821   0.14513   1.96699
C     1.34512   1.65185   0.19122
C     0.40024   2.31842  -0.82776
C    -1.11560   2.37145  -0.48531
C    -2.07134   1.53283  -1.35304
H    -2.60119   0.17493   3.48521
H    -3.98890  -0.71271   2.75231
H    -3.92594   1.08123   2.66333
H    -3.62040  -2.33527  -2.78270
H    -3.77767  -2.22433  -1.00194
H    -2.16801  -2.50912  -1.74499
H     2.35304   2.08233   0.10528
H     0.98895   1.88612   1.20408
H     0.75589   3.35687  -0.90521
H     0.54758   1.88408  -1.82690
H    -1.44172   3.41540  -0.60485
H    -1.27268   2.13788   0.57977
H    -3.06995   1.99495  -1.38061
H    -1.70561   1.48931  -2.39056
