59
Generated by autodE on: 2022-06-05. E = -1417.699222 Ha
C    -4.36120   6.15866  -2.86504
O    -5.64506   6.18769  -2.20973
C    -6.21475   7.36891  -2.05237
O    -5.76436   8.42074  -2.44621
C    -7.53352   7.28749  -1.25534
C    -8.17709   5.96697  -1.45986
N    -8.73387   4.95977  -1.60481
N    -8.43194   8.35086  -1.67196
C    -8.95292   9.03628  -0.46457
C   -10.40764   8.51815  -0.41023
O   -11.37495   9.04780  -0.91262
O   -10.44790   7.30895   0.14705
C   -11.68787   6.59244   0.08487
C    -8.80332  10.55362  -0.60445
C    -7.51099  11.04355  -0.86193
C    -7.26453  12.41409  -0.94549
C    -8.30953  13.32650  -0.77455
C    -9.59833  12.85120  -0.52379
C    -9.84538  11.47750  -0.43814
C    -8.09971   8.48341   0.69111
C    -7.27136   7.51921   0.25204
C    -6.26322   6.64430   0.95087
C    -6.85627   5.38866   1.63441
C    -7.39359   5.57900   3.05396
C    -8.40610   6.71514   3.22968
C    -7.75117   8.11329   3.21871
C    -8.23026   9.07277   2.09156
C    -9.68557   9.45988   2.41332
C    -7.24807  10.27986   2.16716
C    -7.74784  11.60634   2.65782
O    -6.07452  10.11005   1.87990
H    -3.63518   6.74927  -2.28947
H    -4.45145   6.56235  -3.88267
H    -4.06550   5.10459  -2.89293
H    -7.92203   9.00610  -2.26136
H   -11.50243   5.63026   0.57525
H   -12.47622   7.14604   0.61425
H   -11.98419   6.43654  -0.96222
H    -6.68119  10.34607  -0.98046
H    -6.24911  12.76833  -1.13664
H    -8.11949  14.40059  -0.83480
H   -10.42510  13.55239  -0.38891
H   -10.85745  11.13321  -0.24154
H    -5.68476   7.24089   1.66696
H    -5.53922   6.30012   0.20038
H    -7.65494   4.98168   0.99434
H    -6.06910   4.61787   1.66341
H    -7.85805   4.62868   3.36721
H    -6.54911   5.74904   3.74574
H    -9.17600   6.63890   2.44544
H    -8.93432   6.57285   4.18491
H    -6.66113   8.01725   3.17057
H    -7.95620   8.63033   4.16888
H   -10.32737   8.56980   2.39529
H   -10.10366  10.19749   1.72029
H    -9.74457   9.88607   3.42357
H    -8.57522  11.96536   2.02883
H    -8.14601  11.49917   3.67941
H    -6.92698  12.33442   2.65313
