31
Generated by autodE on: 2022-07-27. E = -913.413792 Ha
C     4.03946  -3.18609  -0.92634
O     2.64319  -2.86257  -0.89096
C     2.32107  -1.63534  -0.46390
O     3.14300  -0.79466  -0.11014
C     0.89029  -1.38732  -0.46720
C    -0.02947  -2.32283  -0.96644
N    -0.76859  -3.11224  -1.41003
N     0.55568  -0.11998  -0.06249
C    -0.57095   0.53008   0.14609
C    -1.88085  -0.19480   0.13756
O    -2.86971   0.21597  -0.43121
O    -1.82876  -1.30655   0.86367
C    -3.00672  -2.13213   0.87713
C    -0.54941   1.97432   0.37941
C     0.53760   2.76733  -0.04734
C     0.56399   4.13432   0.22010
C    -0.49506   4.74037   0.90453
C    -1.58382   3.96708   1.32057
C    -1.61514   2.59830   1.06273
H     4.48019  -3.10741   0.07813
H     4.57464  -2.51545  -1.61433
H     4.09944  -4.22014  -1.28488
H     1.42114   0.42172   0.08155
H    -2.75487  -3.00234   1.49268
H    -3.84839  -1.57935   1.31712
H    -3.25813  -2.44557  -0.14509
H     1.35696   2.32742  -0.62005
H     1.41022   4.73304  -0.12345
H    -0.47525   5.81368   1.10573
H    -2.41454   4.43261   1.85516
H    -2.46621   2.00913   1.40605
