30
Generated by autodE on: 2022-06-03. E = -726.013203 Ha
C    -5.00043   1.40721   1.00167
N    -3.56119   1.37429   0.85894
C    -2.87930   0.30596   0.38985
O    -3.41924  -0.75930   0.03499
C    -1.42513   0.47327   0.31888
N    -0.75205  -0.55672  -0.14783
C     0.55188  -0.81023  -0.38916
C     0.76359  -2.12867  -0.95666
C     2.16591  -2.61069  -1.23040
O    -0.20962  -2.86848  -1.20661
C     1.59429   0.18227  -0.07193
C     1.66119   0.77702   1.20403
C     2.65449   1.71013   1.50492
C     3.60261   2.06710   0.53998
C     3.54752   1.48429  -0.72974
C     2.55121   0.55471  -1.03492
H    -5.40870   0.43954   0.68772
H    -5.44493   2.19832   0.37650
H    -5.29111   1.59170   2.04823
H    -3.02994   2.19848   1.12260
H    -0.91267   1.38652   0.61676
H    -1.34900  -1.36381  -0.41219
H     2.47671  -2.29350  -2.23994
H     2.17159  -3.70933  -1.20573
H     2.89863  -2.21197  -0.51611
H     0.93932   0.49358   1.97299
H     2.69323   2.15532   2.50203
H     4.38022   2.79700   0.77686
H     4.27982   1.76076  -1.49208
H     2.50491   0.11913  -2.03450
