53
Generated by autodE on: 2022-06-14. E = -1097.673867 Ha
C    -7.94660  -6.63361   3.11242
N    -7.40601  -5.97642   1.93875
C    -6.09183  -5.87064   1.67909
O    -5.21528  -6.34652   2.41681
C    -5.65752  -5.11646   0.41645
C    -6.74040  -4.78881  -0.63672
C    -6.22583  -4.72690  -2.08206
C    -4.95528  -3.90472  -2.33968
C    -3.66050  -4.60072  -1.86524
C    -2.85156  -3.90565  -0.73615
C    -2.03886  -2.77242  -1.39699
C    -1.87498  -4.94860  -0.14600
C    -3.73801  -3.38666   0.39559
C    -4.89014  -3.89092   0.87067
C    -5.41241  -3.06430   2.02479
C    -6.73151  -2.33959   1.79086
O    -4.37253  -2.10175   2.26703
C    -3.35198  -2.19417   1.27411
C    -3.45881  -0.81182   0.56974
C    -2.80958   0.36013   1.24515
O    -4.16705  -0.69016  -0.43194
C    -2.01728  -2.46979   1.99927
C    -2.10973  -3.35175   3.21278
O    -0.95062  -2.01124   1.58683
H    -8.58988  -7.48181   2.83003
H    -7.11592  -7.00622   3.72265
H    -8.54329  -5.92998   3.71341
H    -8.05720  -5.52054   1.30935
H    -4.94298  -5.81908  -0.02764
H    -7.52608  -5.56036  -0.60873
H    -7.22687  -3.83713  -0.37924
H    -6.04363  -5.75618  -2.43876
H    -7.04573  -4.33174  -2.70459
H    -4.88842  -3.72668  -3.42438
H    -5.04974  -2.90881  -1.87806
H    -2.96502  -4.70141  -2.71305
H    -3.88565  -5.63515  -1.57063
H    -1.32859  -3.21680  -2.11098
H    -2.68854  -2.08200  -1.95142
H    -1.45650  -2.18932  -0.67219
H    -1.29190  -5.41619  -0.95594
H    -2.42652  -5.73913   0.38543
H    -1.16028  -4.49646   0.55619
H    -5.49768  -3.68414   2.93508
H    -6.68768  -1.73883   0.87041
H    -7.56298  -3.05429   1.71557
H    -6.93424  -1.67162   2.64207
H    -3.22263   1.29704   0.84969
H    -2.95405   0.30041   2.33490
H    -1.72467   0.32506   1.06184
H    -1.10540  -3.68296   3.50620
H    -2.56371  -2.77890   4.03686
H    -2.76512  -4.21530   3.02248
