33
Generated by autodE on: 2022-06-14. E = -598.940457 Ha
C     3.35993  -2.80870  -2.14570
N     2.39300  -1.73414  -2.04774
C     1.71690  -1.43673  -0.92272
O     1.83329  -2.06605   0.13501
C     0.80688  -0.21248  -1.01526
C    -0.50160  -0.41273  -0.39427
C    -1.49136  -0.11348   0.24159
C    -2.39643   0.65210   1.10925
C    -2.33445   0.10832   2.54887
C    -3.84887   0.62613   0.60833
C    -1.84225   2.11232   1.04483
C    -0.31855   2.30364   1.20173
C     0.57677   2.22568  -0.06945
C     1.46924   0.98218  -0.26435
H     3.32945  -3.39559  -1.22012
H     4.38130  -2.41835  -2.28288
H     3.12396  -3.46809  -2.99458
H     2.23322  -1.15399  -2.86495
H     0.67221   0.06522  -2.07355
H    -2.67458  -0.93801   2.58613
H    -2.98749   0.70725   3.20329
H    -1.31071   0.14777   2.94971
H    -3.91475   0.97445  -0.43383
H    -4.47485   1.28385   1.23205
H    -4.26453  -0.39223   0.65966
H    -2.15833   2.55593   0.08568
H    -2.36070   2.68074   1.83569
H    -0.18126   3.31043   1.62716
H     0.06984   1.61279   1.96893
H     1.26377   3.08586  -0.03178
H    -0.03827   2.38311  -0.97243
H     2.37263   1.26079  -0.83036
H     1.80701   0.61434   0.71823
