53
Generated by autodE on: 2022-06-14. E = -1097.554546 Ha. Imaginary frequency = -262.3 cm-1
C    -8.60903  -2.92319   1.84354
N    -7.47785  -3.58055   1.21874
C    -7.41478  -4.92070   1.15195
O    -8.36686  -5.65724   1.43857
C    -6.12276  -5.53060   0.60097
C    -6.40104  -5.93412  -0.87039
C    -5.20899  -6.47572  -1.68070
C    -4.48895  -5.48667  -2.62945
C    -3.19986  -4.80735  -2.14860
C    -3.29936  -3.59186  -1.16812
C    -3.96619  -2.37344  -1.83537
C    -1.86849  -3.22531  -0.73125
C    -4.13328  -4.05544  -0.06469
C    -4.93126  -4.64058   0.67883
C    -4.31536  -4.53064   2.74406
C    -5.52919  -4.28184   3.56901
O    -3.28855  -3.73197   2.72259
C    -3.11620  -2.40419   2.37553
C    -4.18767  -1.52369   2.00777
C    -3.84419  -0.12491   1.53695
O    -5.39573  -1.84926   2.02515
C    -1.70511  -2.06462   2.41837
C    -0.74052  -3.15740   2.83820
O    -1.26501  -0.93943   2.13734
H    -8.44398  -1.83890   1.81696
H    -9.54374  -3.15332   1.31102
H    -8.73101  -3.23676   2.89461
H    -6.60074  -3.05251   1.20898
H    -5.93877  -6.43763   1.19793
H    -7.20214  -6.68746  -0.83275
H    -6.82140  -5.05550  -1.38700
H    -4.47778  -6.95634  -1.00809
H    -5.60466  -7.28670  -2.31169
H    -4.20149  -6.05366  -3.52944
H    -5.20931  -4.72923  -2.98269
H    -2.65416  -4.42764  -3.02832
H    -2.55093  -5.56374  -1.67706
H    -3.36136  -2.04824  -2.69608
H    -4.97952  -2.61130  -2.18957
H    -4.03742  -1.53817  -1.12331
H    -1.25203  -3.07153  -1.63000
H    -1.41441  -4.02716  -0.13191
H    -1.86294  -2.29888  -0.14489
H    -3.97504  -5.57340   2.72811
H    -5.96763  -3.29284   3.41951
H    -6.26562  -5.08322   3.43395
H    -5.16639  -4.35382   4.61279
H    -4.78497   0.36307   1.24752
H    -3.34978   0.45617   2.32866
H    -3.15308  -0.14021   0.68260
H     0.28005  -2.75571   2.79229
H    -0.95472  -3.50235   3.86187
H    -0.82400  -4.03432   2.17912
