77
Generated by autodE on: 2022-06-14. E = -1767.334886 Ha
C    19.16063  -3.00961 -28.92228
C    17.69364  -3.21522 -29.15739
O    16.86191  -3.04312 -28.28397
C    17.27107  -3.68052 -30.57995
C    17.38458  -2.52213 -31.58328
O    18.18198  -4.66477 -31.02328
C    17.65867  -5.98874 -30.82433
C    18.18200  -6.78625 -32.02888
C    18.44015  -6.10650 -33.22918
C    18.89441  -6.78788 -34.35934
C    19.10270  -8.16882 -34.31304
C    18.87469  -8.85225 -33.11626
C    18.43323  -8.16304 -31.98445
C    18.25931  -6.44747 -29.47758
C    17.61449  -6.18159 -28.26299
C    18.23836  -6.44357 -27.04174
C    19.53496  -6.96141 -27.00963
C    20.20447  -7.19782 -28.21389
C    19.57531  -6.93608 -29.43323
C    16.09841  -5.74049 -30.75727
C    15.92756  -4.40886 -30.55872
C    14.65863  -3.56249 -30.29265
C    14.93453  -2.14263 -29.95228
N    14.96945  -1.00648 -29.72542
C    13.98275  -3.99709 -29.04980
N    13.46268  -4.22890 -28.03952
C    13.66565  -3.41911 -31.52726
C    13.60032  -4.56088 -32.52565
C    12.95800  -5.84904 -32.02843
C    13.56750  -6.47654 -30.77632
C    15.07047  -6.91473 -30.79187
C    15.30328  -7.77491 -29.51514
C    14.67923  -7.44357 -28.30109
C    14.93044  -8.16450 -27.13089
C    15.81256  -9.24675 -27.14088
C    16.42352  -9.60598 -28.34400
C    16.16380  -8.88191 -29.50905
C    15.16869  -7.76251 -32.07969
C    15.55796  -7.20246 -33.30181
C    15.52418  -7.93875 -34.48741
C    15.07265  -9.26036 -34.48226
C    14.63310  -9.82084 -33.27993
C    14.67197  -9.07633 -32.09823
H    19.31206  -2.48785 -27.96851
H    19.65320  -3.99415 -28.88245
H    19.62351  -2.45058 -29.74873
H    16.98569  -1.57543 -31.20462
H    16.86106  -2.79082 -32.51224
H    18.44984  -2.37662 -31.81002
H    18.26466  -5.03341 -33.28319
H    19.07879  -6.23545 -35.28380
H    19.44958  -8.70629 -35.19869
H    19.05068  -9.92863 -33.05446
H    18.30265  -8.71086 -31.05570
H    16.61273  -5.76345 -28.25524
H    17.70234  -6.23862 -26.11230
H    20.02407  -7.17065 -26.05537
H    21.22658  -7.58399 -28.20756
H    20.12627  -7.10541 -30.35784
H    12.67293  -3.18505 -31.11500
H    14.00916  -2.52618 -32.06556
H    13.01119  -4.18409 -33.37769
H    14.60666  -4.74462 -32.92282
H    12.94911  -6.57995 -32.85061
H    11.90054  -5.64211 -31.79095
H    13.36702  -5.83146 -29.92050
H    13.00407  -7.39657 -30.56346
H    14.00546  -6.59417 -28.23548
H    14.43387  -7.86762 -26.20401
H    16.01590  -9.80680 -26.22517
H    17.10857 -10.45626 -28.38314
H    16.63725  -9.20062 -30.43162
H    15.89972  -6.17241 -33.33801
H    15.85677  -7.47204 -35.41720
H    15.05153  -9.84328 -35.40606
H    14.25322 -10.84518 -33.25709
H    14.30349  -9.53304 -31.17972
