77
Generated by autodE on: 2022-06-14. E = -1767.223755 Ha. Imaginary frequency = -237.0 cm-1
C    19.09456  -3.03721 -28.97928
C    17.93191  -2.70464 -29.88292
O    17.37209  -1.60262 -29.76836
C    17.51819  -3.60588 -30.95387
C    17.24191  -3.00631 -32.31211
O    18.08626  -4.82329 -31.11019
C    18.15747  -5.96850 -30.47265
C    18.51961  -7.06721 -31.37618
C    18.96916  -6.79200 -32.68787
C    19.24831  -7.82609 -33.57603
C    19.09023  -9.15963 -33.17918
C    18.65698  -9.44531 -31.88096
C    18.37860  -8.41427 -30.98607
C    18.27797  -6.11340 -29.00300
C    17.43407  -5.46689 -28.08125
C    17.57210  -5.67128 -26.71197
C    18.56979  -6.51953 -26.22016
C    19.43820  -7.14612 -27.11753
C    19.29671  -6.94460 -28.49096
C    15.33770  -5.64228 -30.66620
C    15.42445  -4.42935 -30.42462
C    14.58609  -3.26519 -29.97971
C    14.64841  -2.08815 -30.87141
N    14.55022  -1.18280 -31.58759
C    14.96493  -2.86396 -28.60892
N    15.20655  -2.63383 -27.49892
C    13.07691  -3.71235 -29.95264
C    12.63123  -4.30958 -31.29925
C    12.21676  -5.78693 -31.24492
C    13.13736  -6.76888 -30.51629
C    14.63072  -6.91284 -30.98887
C    15.20053  -8.08862 -30.16486
C    15.47105  -7.88211 -28.80389
C    15.95214  -8.91440 -27.99767
C    16.14152 -10.19221 -28.53555
C    15.84264 -10.41778 -29.88102
C    15.38369  -9.37314 -30.69063
C    14.71495  -7.16882 -32.50072
C    15.70627  -6.56447 -33.28433
C    15.80809  -6.83117 -34.65286
C    14.90707  -7.70269 -35.26797
C    13.90371  -8.30280 -34.50000
C    13.80862  -8.03768 -33.13185
H    18.73041  -3.23791 -27.95992
H    19.69371  -3.89078 -29.31458
H    19.72865  -2.13877 -28.93041
H    18.11918  -3.16761 -32.96196
H    16.37410  -3.47117 -32.80336
H    17.06615  -1.92927 -32.22915
H    19.10023  -5.75687 -33.00184
H    19.59415  -7.59174 -34.58526
H    19.30636  -9.97084 -33.87806
H    18.51843 -10.48048 -31.56230
H    18.01884  -8.65676 -29.98910
H    16.64193  -4.81944 -28.43631
H    16.88937  -5.16249 -26.02794
H    18.67538  -6.68261 -25.14528
H    20.23629  -7.79461 -26.74941
H    19.99655  -7.42741 -29.17245
H    12.98687  -4.43889 -29.13397
H    12.47924  -2.83286 -29.67450
H    11.77768  -3.73041 -31.68233
H    13.43071  -4.18356 -32.04525
H    12.04772  -6.13158 -32.27695
H    11.23822  -5.85757 -30.73938
H    13.17107  -6.52999 -29.44336
H    12.68303  -7.76952 -30.57669
H    15.30906  -6.89677 -28.36894
H    16.18094  -8.71639 -26.94780
H    16.51765 -11.00462 -27.90933
H    15.98651 -11.40964 -30.31607
H    15.19187  -9.56855 -31.74460
H    16.41034  -5.87659 -32.82066
H    16.59899  -6.35301 -35.23547
H    14.98223  -7.91192 -36.33767
H    13.18837  -8.98375 -34.96745
H    13.02288  -8.52383 -32.55262
