46
Generated by autodE on: 2022-05-31. E = -1076.759143 Ha
C     4.86869  -0.27090  -0.84337
C     4.17253   0.86417  -0.13608
O     4.80406   1.67520   0.54228
C     2.71682   0.94551  -0.30627
C     1.81489   1.66552   0.40845
C     1.96113   2.59845   1.54998
C     0.45884   1.20062  -0.10345
O     0.73490   0.88430  -1.47381
C     1.87046   0.04599  -1.20839
C     1.24808  -1.05566  -0.30138
C     0.39752  -2.08549  -1.06189
C     0.55077  -3.49841  -0.51932
O    -0.96376  -1.62246  -0.97437
C    -1.14530  -0.84760   0.20299
C    -1.62262  -1.77533   1.35287
C    -2.64022  -2.81862   0.98252
O    -1.21278  -1.63931   2.49155
C    -2.25588   0.17197  -0.02002
C    -2.75472   0.41649  -1.30436
C    -3.73717   1.39140  -1.50371
C    -4.22909   2.12951  -0.42368
C    -3.73294   1.88694   0.86164
C    -2.75323   0.91258   1.06334
C     0.22977  -0.21080   0.52052
H     4.39863  -1.23397  -0.58643
H     4.76377  -0.14742  -1.93420
H     5.93322  -0.28709  -0.57608
H     1.56158   3.59119   1.27825
H     1.34989   2.24379   2.39817
H     3.00456   2.70634   1.86538
H    -0.36730   1.91144  -0.00889
H     2.32289  -0.31182  -2.13923
H     2.01312  -1.54485   0.31300
H     0.63889  -2.07973  -2.13611
H     1.57370  -3.85771  -0.71202
H     0.38120  -3.53536   0.56820
H    -0.15497  -4.18423  -1.01166
H    -3.16500  -3.15919   1.88480
H    -2.12457  -3.67806   0.52679
H    -3.35282  -2.43614   0.23850
H    -2.36504  -0.15476  -2.14599
H    -4.11825   1.57501  -2.51126
H    -4.99649   2.89092  -0.58148
H    -4.10956   2.45939   1.71258
H    -2.36604   0.73501   2.06874
H     0.40156  -0.21128   1.60166
