21
Generated by autodE on: 2022-05-31. E = -499.581880 Ha
C    -2.71177   0.95023   0.11627
C    -1.85834  -0.25818  -0.17787
O    -2.34797  -1.27937  -0.66515
C    -0.43430  -0.14402   0.14175
C     0.59426  -0.95202  -0.21296
C     0.66184  -2.20693  -0.99265
C     1.85667  -0.21386   0.29386
C     2.02810   1.03226  -0.60216
C     1.02154   1.83978  -0.25382
C     0.24960   1.06452   0.83687
O     1.33701   0.38557   1.49265
H    -2.28642   1.84803  -0.36176
H    -2.72518   1.14393   1.20173
H    -3.73672   0.78474  -0.24029
H    -0.32601  -2.53040  -1.33861
H     1.11385  -3.00825  -0.38207
H     1.33409  -2.06694  -1.85810
H     2.74077  -0.83337   0.48099
H     2.78485   1.14851  -1.37706
H     0.72887   2.80637  -0.66273
H    -0.35388   1.64674   1.53993
