25
Generated by autodE on: 2022-05-31. E = -577.047007 Ha
C     3.57148  -1.51382  -0.38193
C     2.13518  -1.19437  -0.33664
O     1.77621  -0.02711   0.02571
C     0.54661   0.56675   0.12710
C     0.62559   1.95193   0.44706
C     2.00501   2.56982   0.61897
O    -0.39382   2.66618   0.58619
C    -0.68531  -0.20677  -0.05328
C    -0.85573  -1.48579   0.52099
C    -2.05344  -2.18625   0.37161
C    -3.11517  -1.62778  -0.34797
C    -2.96524  -0.35810  -0.91547
C    -1.76660   0.34228  -0.77532
H     3.85126  -1.83720  -1.40080
H     3.79043  -2.36881   0.28314
H     4.18126  -0.64955  -0.08610
H     1.36875  -1.92195  -0.62158
H     2.57545   2.53594  -0.32303
H     1.87780   3.61713   0.92374
H     2.60019   2.03903   1.37791
H    -0.05319  -1.93199   1.11209
H    -2.16069  -3.17267   0.82951
H    -4.05201  -2.17755  -0.46452
H    -3.78680   0.08878  -1.48097
H    -1.65870   1.32937  -1.22460
