46
Generated by autodE on: 2022-05-31. E = -1076.627014 Ha. Imaginary frequency = -137.8 cm-1
C     5.01087   0.01596  -1.12583
C     4.30830   1.11505  -0.36814
O     4.94310   2.03701   0.14897
C     2.85042   1.01718  -0.28241
C     1.98689   1.70119   0.50840
C     2.17628   2.77002   1.51332
C     0.61411   1.03745   0.24923
O     0.75361   0.69634  -1.13945
C     1.96725  -0.05539  -0.97583
C     1.53220  -1.05543   0.11319
C    -0.23857  -2.62031  -1.06242
C     0.11732  -3.68207  -0.09885
O    -1.19677  -1.75497  -0.95236
C    -1.80927  -1.21758   0.13632
C    -2.24602  -2.05005   1.24416
C    -2.69573  -3.47245   0.96116
O    -2.42330  -1.58546   2.38238
C    -2.36351   0.11245  -0.12487
C    -2.35110   0.65281  -1.43219
C    -2.86153   1.92319  -1.69033
C    -3.39909   2.70243  -0.65909
C    -3.42195   2.17960   0.63750
C    -2.91456   0.90750   0.90657
C     0.68153  -0.35756   0.90215
H     6.09890   0.13827  -1.04639
H     4.71249  -0.97211  -0.73850
H     4.71335   0.04498  -2.18721
H     1.58919   3.66190   1.23203
H     1.77501   2.43560   2.48672
H     3.22930   3.05151   1.62364
H    -0.26863   1.65301   0.44492
H     2.32517  -0.46420  -1.92561
H     2.04359  -1.99095   0.32325
H     0.15381  -2.64878  -2.08267
H     1.14894  -4.00279  -0.29903
H     0.02693  -3.35073   0.94516
H    -0.53024  -4.56779  -0.22892
H    -3.75364  -3.51720   1.26665
H    -2.14770  -4.19674   1.58229
H    -2.62995  -3.76296  -0.09363
H    -1.93026   0.06883  -2.24981
H    -2.83680   2.31031  -2.71235
H    -3.79161   3.70105  -0.86379
H    -3.83390   2.77194   1.45877
H    -2.92267   0.52236   1.92365
H     0.28291  -0.60065   1.88470
