15
Generated by autodE on: 2022-05-31. E = -437.156731 Ha
C     2.65196  -0.58496   0.37899
N     1.23615  -0.31534   0.50910
C     0.48430  -0.02904  -0.55578
O     0.88395   0.03592  -1.72360
C    -0.98002   0.23617  -0.28769
C    -1.86031   0.55722  -1.42794
O    -1.54201   0.20687   0.85239
O    -0.87399  -0.07699   2.01930
H     2.82969  -1.46627  -0.25826
H     3.07226  -0.77190   1.37403
H     3.17465   0.27004  -0.07883
H     0.72389  -0.32581   1.40669
H    -2.88999   0.72542  -1.09075
H    -1.47255   1.45033  -1.94473
H    -1.82352  -0.26915  -2.15667
