28
Generated by autodE on: 2022-05-31. E = -653.567709 Ha
C     3.72251   0.54099  -0.04641
O     2.38531   0.31032  -0.51654
C     1.57122  -0.35851   0.29959
O     1.92003  -0.84987   1.35727
C     0.19946  -0.50587  -0.24010
C    -0.77205   0.43676  -0.32619
C    -0.63572   1.84568   0.10166
C    -1.84732   2.72503  -0.03234
O     0.42446   2.26948   0.55664
C    -2.05813  -0.29090  -0.68998
C    -2.46622  -1.07779   0.59914
C    -1.34412  -2.14591   0.72257
C    -0.43937  -1.85312  -0.52253
C    -1.49991  -1.43421  -1.56171
H     4.22601  -0.41051   0.17597
H     3.70139   1.16646   0.85804
H     4.24097   1.06536  -0.85716
H    -2.19394   2.73788  -1.07837
H    -1.61567   3.74457   0.30148
H    -2.67383   2.31287   0.57011
H    -2.85469   0.32840  -1.11708
H    -2.53012  -0.41614   1.47442
H    -3.45110  -1.54580   0.45582
H    -1.74678  -3.16659   0.64689
H    -0.77112  -2.07298   1.65666
H     0.25508  -2.66023  -0.78395
H    -2.23588  -2.22646  -1.76492
H    -1.05999  -1.08034  -2.50554
