43
Generated by autodE on: 2022-05-31. E = -1090.722066 Ha. Imaginary frequency = -212.9 cm-1
C     1.81910   2.77615  -1.53074
N     1.53987   2.04943  -0.30984
C     2.17341   0.91271  -0.01469
O     3.12175   0.43931  -0.65104
C     1.74060   0.19730   1.24724
C     2.66646  -0.80860   1.82062
O     0.86364   0.64500   2.08915
O    -0.17927   1.38641   1.60635
C    -1.15417  -0.18715   0.33178
C    -1.77771   0.74278  -0.66813
O    -2.66082   0.35083  -1.40863
O    -1.34068   1.99518  -0.66018
C    -1.85190   2.86357  -1.68269
C    -2.01647  -0.89392   1.36823
C    -2.70755  -2.07435   0.60163
C    -1.52646  -3.03627   0.28739
C    -0.30231  -2.29230   0.91062
C    -0.96005  -1.68550   2.16446
C    -0.10057  -1.05537   0.03236
C     0.53886  -1.07470  -1.29646
C     1.42138  -2.24497  -1.63018
O     0.34501  -0.16744  -2.10670
H     2.90057   2.93559  -1.64648
H     1.45601   2.22307  -2.41195
H     1.31677   3.75012  -1.48935
H     0.66238   2.20433   0.19576
H     2.23299  -1.26710   2.71693
H     3.62434  -0.32389   2.07523
H     2.88783  -1.57808   1.06910
H    -2.94519   2.94655  -1.60876
H    -1.38303   3.83838  -1.50879
H    -1.57612   2.47778  -2.67455
H    -2.70494  -0.24430   1.92071
H    -3.23695  -1.73009  -0.29351
H    -3.43888  -2.54151   1.27705
H    -1.39560  -3.21232  -0.78952
H    -1.66146  -4.01333   0.77440
H     0.58749  -2.91446   1.06083
H    -1.42445  -2.45087   2.80321
H    -0.29676  -1.06786   2.77509
H     2.17318  -2.40342  -0.84338
H     0.81219  -3.16235  -1.68043
H     1.91347  -2.07786  -2.59661
