53
Generated by autodE on: 2022-06-05. E = -1488.299995 Ha
C     4.35679  -0.18165  -2.81885
O     3.46230  -0.41264  -1.71588
C     2.69818   0.60091  -1.34317
O     2.74213   1.69973  -1.85445
C     1.77206   0.30914  -0.12762
C     2.71814   0.07063   1.07368
O     3.66468  -0.68452   1.03843
O     2.37040   0.76809   2.14771
C     3.16394   0.56279   3.32920
N     0.91288   1.44582   0.10769
C    -0.30507   1.34160  -0.64639
C    -0.20042   1.84139  -2.04523
N    -0.15621   2.33553  -3.09409
C    -1.40535   2.22854  -0.00821
O    -1.25449   2.87859   0.99697
O    -2.51955   2.17378  -0.72462
C    -3.67753   2.83248  -0.18305
C    -0.65855  -0.20733  -0.55072
C    -1.73015  -0.41196   0.50696
C    -1.46376  -0.11770   1.85528
C    -2.46108  -0.22560   2.82615
C    -3.75351  -0.61794   2.46781
C    -4.04016  -0.88445   1.12662
C    -3.03985  -0.77679   0.15721
C    -0.99199  -0.79104  -1.97079
C    -1.28160  -2.28072  -1.84072
C    -0.09372  -2.85012  -1.61848
C     0.90975  -1.70799  -1.62460
O     0.31871  -0.79668  -2.56278
C     0.75838  -0.91287  -0.28133
C     0.83029  -1.88130   0.90104
H     5.06166   0.62440  -2.57228
H     4.89107  -1.12553  -2.97298
H     3.78457   0.08785  -3.71760
H     3.10045  -0.48704   3.64880
H     2.73772   1.22202   4.09349
H     4.21276   0.82667   3.13452
H     1.38640   2.34153   0.00712
H    -3.92678   2.39917   0.79590
H    -3.48866   3.90985  -0.07874
H    -4.48702   2.65198  -0.89845
H    -0.47367   0.23013   2.14603
H    -2.22524   0.00612   3.86735
H    -4.53494  -0.70339   3.22647
H    -5.05099  -1.16983   0.82639
H    -3.30689  -0.95443  -0.88375
H    -1.69329  -0.18995  -2.55795
H    -2.26657  -2.74235  -1.87166
H     0.13978  -3.89322  -1.40950
H     1.93596  -1.95778  -1.89287
H     0.86644  -1.37823   1.87309
H    -0.04208  -2.54510   0.90660
H     1.73346  -2.50080   0.80650
