41
Generated by autodE on: 2022-06-18. E = -791.005208 Ha
C     3.65450   1.35207   1.78241
C     3.10048   1.39570   0.55366
C     3.84286   1.95642  -0.63038
C     1.74040   0.88212   0.35328
C     1.07604   0.86567  -0.81632
C    -0.32280   0.34810  -1.02959
C    -1.03850  -0.01053   0.24802
C    -1.48171   1.06535   1.19052
O    -1.45913   2.24440   0.89129
O    -1.89259   0.60609   2.37075
C    -2.33758   1.58640   3.32039
N    -1.24017  -1.25109   0.47057
C    -0.66326  -2.04164  -0.64403
C    -1.60641  -3.19802  -0.97727
C     0.65982  -2.62781  -0.12637
C    -0.46198  -1.00227  -1.82252
C    -1.72272  -0.89361  -2.69437
C     0.72835  -1.31870  -2.72735
H     4.66654   1.72343   1.96647
H     3.10576   0.94159   2.63572
H     4.84622   2.30196  -0.34414
H     3.94956   1.20003  -1.42578
H     3.29699   2.80500  -1.07536
H     1.26066   0.47655   1.25142
H     1.55492   1.26631  -1.71412
H    -0.87538   1.14162  -1.55901
H    -3.19988   2.14181   2.92396
H    -1.52548   2.29051   3.55266
H    -2.62516   1.02787   4.21842
H    -2.62951  -2.85438  -1.18087
H    -1.24223  -3.74644  -1.85920
H    -1.64791  -3.90240  -0.13241
H     1.08478  -3.32505  -0.86276
H     1.40016  -1.84447   0.08287
H     0.47717  -3.18644   0.80404
H    -2.61936  -0.67018  -2.09596
H    -1.59515  -0.07766  -3.42269
H    -1.90901  -1.81850  -3.25906
H     1.68389  -1.32749  -2.18699
H     0.80727  -0.56988  -3.53139
H     0.59566  -2.30340  -3.20305
