18
Generated by autodE on: 2022-06-18. E = -439.401337 Ha
C     3.22595   1.12206  -0.25265
O     1.94638   0.62295  -0.67369
C     1.37400  -0.29637   0.11733
O     1.86850  -0.71973   1.14846
C     0.14863  -0.83906  -0.47484
N    -0.98366  -0.41698  -0.21472
C    -2.19096  -0.06859  -0.01460
C    -2.84748   0.94180  -0.90947
C    -2.97204  -0.66075   1.12214
H     3.95376   0.30140  -0.17338
H     3.14329   1.63262   0.71784
H     3.54095   1.83254  -1.02574
H    -3.17129   1.81495  -0.31840
H    -2.17012   1.27952  -1.70510
H    -3.75239   0.50515  -1.36492
H    -3.30170   0.13687   1.80897
H    -3.88112  -1.15114   0.73489
H    -2.37787  -1.39371   1.68387
