27
Generated by autodE on: 2022-06-20. E = -757.847393 Ha
C     3.66421  -2.33320   0.53105
N     2.33333  -1.76431   0.43866
C     2.13923  -0.50527   0.02784
O     3.05913   0.25642  -0.30995
C     0.72225  -0.02097  -0.04357
N     0.65414   1.18807  -0.54750
C    -0.37012   2.07929  -0.74691
C    -0.06840   3.28944  -1.40609
N     0.16646   4.29584  -1.95211
C    -1.68214   1.86907  -0.27620
N    -2.78269   1.76101   0.10094
C    -0.45068  -0.82162   0.33914
C    -0.60417  -1.27755   1.66064
C    -1.71389  -2.04951   2.00742
C    -2.66901  -2.38063   1.04110
C    -2.51456  -1.93836  -0.27686
C    -1.41276  -1.16058  -0.62977
H     4.30997  -1.71311   1.17120
H     4.13617  -2.40472  -0.46196
H     3.58959  -3.33784   0.96306
H     1.53028  -2.34053   0.67070
H     1.59826   1.52617  -0.80824
H     0.13935  -1.01211   2.41456
H    -1.83416  -2.39122   3.03767
H    -3.53559  -2.98648   1.31533
H    -3.25676  -2.19975  -1.03410
H    -1.29079  -0.81318  -1.65765
