27
Generated by autodE on: 2022-07-27. E = -757.840163 Ha
C     1.41460   2.40009  -0.64524
N     0.62059   2.30100   0.56796
C    -0.08762   1.24363   0.98199
O    -0.78384   1.22421   2.00062
C     0.02682  -0.02837   0.16988
N    -1.05981  -0.56660  -0.33537
C    -2.34682  -0.06931  -0.48686
C    -3.35685  -0.96797  -0.87607
N    -4.20446  -1.70500  -1.20385
C    -2.65504   1.29108  -0.32048
N    -2.93562   2.42111  -0.20787
C     1.30521  -0.72975   0.08170
C     2.30443  -0.48775   1.04773
C     3.52298  -1.16019   0.98255
C     3.76891  -2.07744  -0.04482
C     2.78814  -2.31636  -1.01373
C     1.56825  -1.64580  -0.95826
H     2.47491   2.16422  -0.46250
H     1.02882   1.71948  -1.41463
H     1.34420   3.42522  -1.03321
H     0.58647   3.11038   1.18526
H    -0.95500  -1.52138  -0.69188
H     2.12004   0.21256   1.86411
H     4.28455  -0.96994   1.74163
H     4.72695  -2.59934  -0.09553
H     2.98037  -3.01790  -1.82820
H     0.83178  -1.81272  -1.74747
