41
Generated by autodE on: 2022-06-20. E = -1028.497293 Ha. Imaginary frequency = -381.1 cm-1
C     1.18524   3.61670  -0.24427
N     1.05545   2.20658  -0.55303
C     0.72154   1.31168   0.39592
O     0.65170   1.60828   1.58671
C     0.52174  -0.10642  -0.16771
C     1.78310  -0.88987  -0.23425
C     2.78239  -0.66993   0.73466
C     3.95505  -1.42569   0.73493
C     4.15890  -2.41120  -0.23413
C     3.17870  -2.63271  -1.20702
C     2.00248  -1.88391  -1.20748
N    -0.30222  -0.13497  -1.27850
C    -1.57356   0.39851  -1.23943
C    -2.56131  -0.23563  -2.04878
N    -3.38380  -0.77375  -2.67323
C    -1.83243   1.76860  -0.93251
N    -2.13762   2.86425  -0.68045
C    -2.01083  -0.46700   0.91125
C    -2.44589   0.68586   1.68981
O    -3.59590   1.11513   1.66363
C    -0.78296  -1.16066   1.13552
C    -0.74915  -2.54763   0.52676
C    -0.10272  -1.10653   2.49046
H     1.57393   4.13920  -1.12658
H     1.87709   3.76581   0.59699
H     0.20802   4.04986   0.02822
H     1.04567   1.91807  -1.52656
H     2.64009   0.09667   1.49638
H     4.71425  -1.23868   1.49743
H     5.07806  -3.00113  -0.23572
H     3.32881  -3.39492  -1.97462
H     1.26490  -2.09031  -1.98523
H    -0.23416  -0.97017  -1.85724
H    -2.82679  -0.99164   0.40946
H    -1.67458   1.19638   2.30268
H    -1.11251  -2.55931  -0.51164
H    -1.41824  -3.20201   1.11057
H     0.25612  -2.98869   0.56136
H    -0.61500  -1.82654   3.15138
H    -0.12794  -0.12029   2.95969
H     0.94461  -1.43111   2.41307
