38
Generated by autodE on: 2022-05-31. E = -1410.255815 Ha
C     4.79100  -1.73013   0.99165
O     3.36787  -1.57651   0.84819
C     2.94923  -0.49065   0.21635
O     3.66936   0.37607  -0.23662
C     1.45717  -0.42293   0.10164
N     0.68940  -1.42037   0.27840
C    -0.70396  -1.05553   0.07745
C    -1.54740  -1.56755   1.30494
C    -0.79443  -2.16992   2.44966
O    -2.75422  -1.49647   1.26709
C    -1.28168  -1.86812  -1.12851
C    -0.42467  -2.94889  -1.70751
O    -2.40937  -1.64067  -1.50794
C    -0.74320   0.53248  -0.16410
C    -1.47108   1.31071   0.93387
F    -1.11893   0.89183   2.16712
F    -1.22394   2.62648   0.89418
F    -2.80165   1.17108   0.81938
C    -1.20886   0.94332  -1.61674
C    -1.00270   2.43412  -1.82540
C     0.31684   2.60873  -1.96369
C     0.91086   1.22205  -1.81285
O    -0.11243   0.38050  -2.35417
C     0.78811   0.86376  -0.28611
F     1.23972   1.89681   0.50632
H     5.26940  -1.77553   0.00310
H     5.20674  -0.88908   1.56454
H     4.93756  -2.67150   1.53241
H     0.02071  -1.50992   2.77800
H    -1.49116  -2.36848   3.27396
H    -0.33038  -3.11232   2.11791
H    -0.97364  -3.45385  -2.51236
H     0.51150  -2.52043  -2.09505
H    -0.14950  -3.66878  -0.92142
H    -2.16814   0.52130  -1.91641
H    -1.79660   3.17892  -1.79862
H     0.88349   3.53216  -2.07220
H     1.89208   1.01224  -2.24773
