22
Generated by autodE on: 2022-05-31. E = -666.175269 Ha
C     4.57442   0.25002  -0.91104
O     3.21368  -0.13530  -0.61936
C     2.33586   0.84579  -0.51290
O     2.53463   2.03519  -0.63255
C     1.01184   0.33842  -0.21721
N    -0.10184   0.08211   0.01676
C    -1.34524  -0.30353   0.28520
C    -1.51020  -1.76144   0.42039
C    -2.87511  -2.31144   0.73129
O    -0.53688  -2.50267   0.27840
C    -2.36532   0.74187   0.40598
C    -1.90724   2.16857   0.20916
O    -3.54113   0.47669   0.65324
H     4.96037   0.89588  -0.11035
H     5.14031  -0.68605  -0.95935
H     4.61595   0.77911  -1.87300
H    -2.80394  -3.40527   0.79672
H    -3.25458  -1.89719   1.67710
H    -3.59609  -2.02289  -0.04790
H    -2.76151   2.84315   0.34688
H    -1.11177   2.42678   0.92645
H    -1.48957   2.30511  -0.80160
