16
Generated by autodE on: 2022-05-31. E = -743.987488 Ha
F    -0.46946  -0.93028   2.08524
C    -0.65849  -0.67740   0.80604
C     0.17056  -0.16784  -0.10830
C     1.54622   0.35007   0.01348
F     2.06758   0.13604   1.23369
F     1.59163   1.68321  -0.21478
F     2.38642  -0.21065  -0.88308
C    -0.74008  -0.01116  -1.35480
C    -1.76092   1.10864  -1.04595
C    -2.56833   0.59385  -0.11467
C    -2.03043  -0.83724   0.12312
O    -1.57720  -1.17445  -1.19745
H    -0.23073   0.01032  -2.32361
H    -1.74501   2.10556  -1.48427
H    -3.39633   1.04733   0.42810
H    -2.70560  -1.58332   0.55487
