38
Generated by autodE on: 2022-05-31. E = -1410.158480 Ha. Imaginary frequency = -316.1 cm-1
C     4.95041  -1.06698   1.12384
O     3.50727  -1.00361   1.09186
C     2.93745  -1.06217  -0.09715
O     3.48766  -1.15244  -1.17139
C     1.47432  -0.91328   0.01193
N     0.49661  -1.60686   0.09525
C    -0.81367  -1.70392   0.18728
C    -1.38839  -1.80057   1.56417
C    -0.40784  -1.74519   2.70670
O    -2.59042  -1.92140   1.73919
C    -1.59374  -1.97905  -1.05473
C    -0.80250  -2.34747  -2.27949
O    -2.81271  -1.89879  -1.05898
C    -0.65029   1.02498  -0.23340
C    -1.68933   1.40568   0.74767
F    -1.35096   1.09909   2.01566
F    -1.92371   2.74524   0.73297
F    -2.87927   0.82687   0.49262
C    -0.84679   1.26419  -1.74944
C    -0.60245   2.77220  -1.98303
C     0.71035   2.94521  -1.79842
C     1.25631   1.54069  -1.47294
O     0.38696   0.71878  -2.25786
C     0.71193   1.15909  -0.07360
F     1.31963   1.59326   1.03714
H     5.29244  -2.02678   0.71322
H     5.37279  -0.23650   0.54150
H     5.22536  -0.97905   2.18008
H     0.23379  -0.85491   2.63423
H    -0.96243  -1.72999   3.65291
H     0.25309  -2.62668   2.67804
H    -1.49090  -2.51888  -3.11643
H    -0.09987  -1.53876  -2.53131
H    -0.20772  -3.25496  -2.08806
H    -1.72502   0.80459  -2.21365
H    -1.38039   3.50568  -2.18972
H     1.30670   3.85612  -1.81878
H     2.31519   1.34256  -1.66479
