36
Generated by autodE on: 2022-10-22. E = -770.455419 Ha
C     2.70447  -2.52350   0.88490
O     2.29061  -1.34169   1.55712
C     1.79685  -0.32312   0.72234
O     2.75731   0.06724  -0.24131
C     3.95739   0.63995   0.26678
C     0.59624  -0.71358  -0.04873
C    -0.50857  -0.57475  -0.52642
C    -1.78306   0.11895  -0.81386
O    -2.20330   0.00279  -2.15100
C    -2.44535  -1.32637  -2.59205
O    -2.72967  -0.44255   0.07649
C    -4.01246   0.17394   0.09830
C    -1.50956   1.61786  -0.56492
C    -0.90728   1.96375   0.80995
C     0.64146   2.00495   0.94817
C     1.34386   0.82626   1.64827
H     1.88793  -2.93333   0.26372
H     2.96846  -3.25615   1.65931
H     3.58073  -2.34302   0.24178
H     4.35193   0.06567   1.11969
H     3.81322   1.68961   0.57246
H     4.69001   0.60843  -0.55167
H    -3.29391  -1.78588  -2.06025
H    -1.55241  -1.96079  -2.44832
H    -2.67707  -1.27062  -3.66413
H    -4.00540   1.11474   0.67340
H    -4.69212  -0.53532   0.59082
H    -4.38403   0.37451  -0.91887
H    -0.84644   1.95780  -1.37442
H    -2.46570   2.14447  -0.70295
H    -1.28045   2.96723   1.06438
H    -1.33399   1.29047   1.57228
H     0.88900   2.90219   1.53523
H     1.10228   2.16585  -0.04093
H     2.23968   1.18023   2.18002
H     0.68529   0.38036   2.40856
