53
Generated by autodE on: 2022-10-22. E = -1375.192031 Ha. Imaginary frequency = -326.1 cm-1
C     0.36396 -24.10294  -7.89692
O     1.28688 -23.34306  -7.09375
C     0.78054 -22.34351  -6.39551
O    -0.36453 -21.95776  -6.41574
C     1.82816 -21.70594  -5.56344
N     2.38327 -20.64945  -5.47824
N     3.08277 -19.84594  -4.80817
C     4.40979 -19.71102  -5.25185
O     4.96673 -20.42173  -6.06572
O     4.96145 -18.66469  -4.64276
C     6.36738 -18.48326  -4.84971
C     3.37234 -21.87422  -3.14458
C     2.53298 -22.62850  -3.64388
C     1.59128 -23.74283  -3.29831
O     0.41810 -23.53415  -4.04984
C    -0.66652 -24.42644  -3.83983
O     2.15003 -25.01171  -3.54097
C     2.47210 -25.30874  -4.89307
C     1.37026 -23.66910  -1.77462
C     0.94364 -22.28756  -1.23688
C     1.98778 -21.52416  -0.39180
C     3.04843 -20.63947  -1.06930
C     4.08852 -21.34235  -1.96224
O     5.11333 -20.48894  -2.42116
C     5.87365 -19.79428  -1.44265
O     4.63254 -22.39910  -1.19351
C     5.52183 -23.27627  -1.87316
H     0.96506 -24.87538  -8.38803
H    -0.39948 -24.56068  -7.25225
H    -0.11520 -23.45395  -8.64278
H     6.65617 -17.62846  -4.22769
H     6.57713 -18.27102  -5.90821
H     6.91784 -19.38315  -4.53984
H    -1.37557 -24.24592  -4.65955
H    -1.17607 -24.23072  -2.88196
H    -0.33988 -25.47758  -3.86860
H     1.56943 -25.42031  -5.51247
H     3.02316 -26.25888  -4.88313
H     3.11203 -24.52529  -5.33215
H     0.62700 -24.43848  -1.51806
H     2.31680 -23.98597  -1.31496
H     0.58400 -21.65342  -2.06399
H     0.06961 -22.44240  -0.58600
H     1.43179 -20.84623   0.27609
H     2.49797 -22.24118   0.27158
H     2.57337 -19.85984  -1.68366
H     3.60239 -20.12704  -0.26822
H     5.34283 -18.90394  -1.06688
H     6.79874 -19.46763  -1.93719
H     6.13717 -20.44545  -0.59428
H     4.97830 -23.91949  -2.58546
H     5.99103 -23.90804  -1.10673
H     6.30481 -22.71981  -2.41212
