40
Generated by autodE on: 2022-10-21. E = -5937.941580 Ha
C    -4.28999  -0.87996  -2.07733
O    -3.05895  -0.53278  -1.47491
C    -3.05908   0.74744  -0.84508
C    -2.94851   1.94481  -1.82298
C    -1.55108   2.47564  -2.15021
C    -0.62137   1.53963  -2.92285
C    -0.29184   0.17459  -2.30592
C     0.24452   0.14619  -0.87988
Br    0.80403  -1.77053  -0.55212
Br    1.93357   1.23751  -0.82464
C    -0.65418   0.57458   0.23493
C    -2.00089   0.79460   0.22526
C    -2.34109   1.27133   1.57405
N    -1.34735   1.35707   2.38649
C    -0.16984   0.90720   1.64539
C     0.54604  -0.20759   2.38532
C    -0.16753  -1.34505   2.78790
C     0.48139  -2.38991   3.44457
C     1.85458  -2.30920   3.70704
C     2.56834  -1.17384   3.31645
C     1.91433  -0.12531   2.66091
H    -4.56426  -0.20061  -2.90398
H    -4.17986  -1.89563  -2.48343
H    -5.11256  -0.87636  -1.33739
H    -4.02954   0.84957  -0.32831
H    -3.52613   2.77106  -1.37883
H    -3.47617   1.66972  -2.75090
H    -1.05768   2.81048  -1.22324
H    -1.67933   3.38709  -2.75730
H     0.31957   2.07604  -3.12374
H    -1.06898   1.32414  -3.90824
H    -1.18524  -0.46172  -2.30013
H     0.45307  -0.31898  -2.94489
H    -3.35950   1.55366   1.86388
H     0.51744   1.76540   1.57753
H    -1.23562  -1.41622   2.56963
H    -0.08310  -3.27447   3.74975
H     2.36428  -3.12922   4.21883
H     3.63902  -1.10058   3.52258
H     2.47548   0.75860   2.35115
