16
Generated by autodE on: 2022-10-21. E = -363.902489 Ha
C    -3.25078   1.13865   0.39767
N    -2.45369   0.20939   0.33354
C    -1.56499  -0.68920   0.11300
C    -0.14492  -0.37674  -0.01524
C     0.76635  -1.42332  -0.26158
C     2.12906  -1.15873  -0.39920
C     2.60734   0.15241  -0.29557
C     1.70873   1.19872  -0.05159
C     0.34593   0.94104   0.09026
H    -3.56251   1.48708   1.40081
H    -1.90126  -1.72658   0.01773
H     0.39355  -2.44719  -0.34589
H     2.82305  -1.98103  -0.58947
H     3.67470   0.35871  -0.40280
H     2.07514   2.22485   0.03149
H    -0.34823   1.76212   0.28483
