51
Generated by autodE on: 2022-06-02. E = -1242.704606 Ha
C     4.69327  -1.42394  -0.74639
N     3.47591  -0.75941  -0.32139
C     2.53258  -1.40188   0.37489
O     2.61557  -2.57781   0.72629
C     1.29539  -0.54472   0.77372
C     1.43335  -0.46104   2.32665
C     1.89917   0.83722   2.90935
O     1.20618  -1.44619   2.99440
N     1.37629   0.78271   0.20004
C     0.30497   1.09958  -0.41465
C     0.19879   2.43955  -1.10239
C     1.34617   3.39005  -0.93744
O    -0.79064   2.70223  -1.76453
C    -0.82481   0.08043  -0.42847
C    -2.01922   0.69507   0.29737
C    -1.94075   1.01427   1.66391
C    -3.00341   1.63844   2.32165
C    -4.16635   1.96885   1.62187
C    -4.24899   1.67825   0.25744
C    -3.18528   1.05356  -0.39771
C    -1.08348  -0.45024  -1.87020
C    -2.10905  -1.60969  -1.82762
C    -1.27566  -2.80589  -1.29349
C     0.08351  -2.16330  -0.96704
C     0.22530  -1.20137  -2.15847
C    -0.07508  -1.17700   0.25408
C    -0.86860  -1.81195   1.29805
N    -1.57573  -2.34018   2.05189
H     4.46977  -2.26816  -1.41726
H     5.25049  -1.81445   0.11925
H     5.32238  -0.70160  -1.27978
H     3.31333   0.21705  -0.55148
H     1.16937   1.63115   2.68671
H     2.01913   0.72710   3.99451
H     2.85018   1.13900   2.44521
H     1.14460   4.30935  -1.50131
H     2.27840   2.92273  -1.29029
H     1.48978   3.62309   0.12936
H    -1.04219   0.78650   2.23778
H    -2.91556   1.86971   3.38563
H    -4.99904   2.45697   2.13353
H    -5.14609   1.94317  -0.30708
H    -3.26910   0.86000  -1.46593
H    -1.33779   0.35655  -2.56485
H    -2.96987  -1.38876  -1.18506
H    -2.49446  -1.80148  -2.83915
H    -1.12048  -3.56539  -2.07291
H    -1.73836  -3.30839  -0.43484
H     0.88489  -2.88759  -0.80366
H     1.12257  -0.57053  -2.14499
H     0.19904  -1.74154  -3.11528
