56
Generated by autodE on: 2022-10-23. E = -1841.779154 Ha
C   -12.86470  17.47581  -3.76283
N   -13.40238  16.67228  -4.84390
C   -14.46835  17.09253  -5.53607
O   -14.93809  18.22493  -5.46203
C   -15.05388  16.10400  -6.54763
N   -15.35624  16.70379  -7.81417
C   -15.59235  15.41491  -8.48912
C   -15.87776  15.55930  -9.90582
N   -16.08244  15.72699 -11.03337
C   -14.26506  14.66155  -8.12298
O   -13.60622  13.89285  -8.76449
O   -13.98030  15.08605  -6.88257
C   -16.64576  14.76486  -7.53635
C   -16.32955  15.25189  -6.31931
C   -16.94222  15.11241  -4.93499
O   -15.84245  15.33640  -4.07610
C   -15.99837  15.38192  -2.66326
C   -18.00543  16.24685  -4.76486
F   -18.66412  16.13767  -3.59797
F   -18.93181  16.19183  -5.74158
F   -17.46085  17.46462  -4.79779
C   -17.64762  13.78392  -4.63959
C   -16.81531  12.52524  -4.87057
C   -16.66877  12.06860  -6.33705
C   -17.86158  12.44737  -7.21818
C   -17.70127  13.78598  -8.03280
C   -19.04134  14.54140  -8.13714
O   -20.10824  14.11884  -7.75788
O   -18.86141  15.72918  -8.70692
C   -20.02068  16.55940  -8.88121
C   -17.31839  13.24733  -9.42122
O   -16.22478  12.79029  -9.67013
O   -18.34125  13.25421 -10.26342
C   -18.11678  12.69426 -11.57140
H   -13.60910  17.61843  -2.96157
H   -11.98516  16.96953  -3.34748
H   -12.56404  18.46834  -4.12887
H   -13.15624  15.68977  -4.89388
H   -14.53066  17.17628  -8.19923
H   -16.50944  14.49066  -2.26801
H   -16.53433  16.28648  -2.33626
H   -14.97865  15.40905  -2.25672
H   -17.95773  13.82004  -3.58734
H   -18.58562  13.74960  -5.20728
H   -17.31373  11.72018  -4.30853
H   -15.82250  12.65183  -4.41141
H   -16.56849  10.97326  -6.34409
H   -15.73831  12.44873  -6.78185
H   -18.78630  12.51382  -6.63462
H   -18.05079  11.64810  -7.94760
H   -20.47965  16.77768  -7.90703
H   -19.65954  17.48183  -9.34904
H   -20.75046  16.05878  -9.53315
H   -17.80877  11.64321 -11.48468
H   -17.34154  13.27128 -12.09403
H   -19.07449  12.77354 -12.09692
