56
Generated by autodE on: 2022-10-23. E = -1841.718385 Ha. Imaginary frequency = -347.7 cm-1
C   -12.87259  17.42544  -3.89427
N   -13.41223  16.76159  -5.06676
C   -14.20286  17.42421  -5.91952
O   -14.39466  18.63809  -5.92732
C   -14.85074  16.56949  -6.98713
N   -15.62864  17.16600  -7.92507
C   -15.77854  16.25800  -8.93825
C   -16.57940  16.52037 -10.07552
N   -17.23878  16.76463 -11.00140
C   -14.60358  15.39046  -8.88265
O   -14.12450  14.58899  -9.64484
O   -14.03252  15.67607  -7.64274
C   -16.74490  14.66526  -7.46322
C   -16.31693  15.12761  -6.37726
C   -16.56729  15.00635  -4.90120
O   -15.30985  14.79892  -4.29057
C   -15.22839  14.69597  -2.87079
C   -17.21872  16.34682  -4.42304
F   -16.33378  17.35310  -4.37251
F   -18.20590  16.71805  -5.25508
F   -17.75369  16.24804  -3.19403
C   -17.58239  13.88353  -4.59178
C   -17.12511  12.44775  -4.85144
C   -16.87915  12.02094  -6.30594
C   -17.96877  12.47616  -7.29068
C   -17.56583  13.68489  -8.20988
C   -18.86824  14.31738  -8.73094
O   -19.71312  13.68337  -9.32220
O   -18.96932  15.60498  -8.43000
C   -20.13560  16.29974  -8.90065
C   -16.80748  13.15486  -9.45009
O   -17.01766  13.53696 -10.57958
O   -15.91316  12.23336  -9.12912
C   -15.15958  11.64911 -10.20677
H   -13.67075  17.68778  -3.17960
H   -12.15810  16.75497  -3.40157
H   -12.35345  18.34858  -4.18529
H   -13.58109  15.75928  -4.99667
H   -16.32768  17.86389  -7.66815
H   -14.18014  14.45507  -2.65007
H   -15.48453  15.64272  -2.37057
H   -15.86787  13.89152  -2.47592
H   -18.50021  14.11305  -5.15213
H   -17.85357  13.96187  -3.53046
H   -17.91511  11.80405  -4.42999
H   -16.21836  12.24126  -4.26116
H   -16.82212  10.92197  -6.32646
H   -15.89596  12.37317  -6.64190
H   -18.87665  12.76618  -6.74298
H   -18.26947  11.65915  -7.96045
H   -20.04020  17.32636  -8.53028
H   -20.15930  16.28946  -9.99935
H   -21.04572  15.82997  -8.50268
H   -14.62773  12.43150 -10.76176
H   -14.44997  10.96126  -9.73397
H   -15.83391  11.10150 -10.88012
