18
Generated by autodE on: 2022-07-26. E = -493.558288 Ha
C     1.63914   0.65967  -3.19321
N     0.94766   0.60845  -1.92351
C     0.77934  -0.52824  -1.21473
O     1.19659  -1.63940  -1.57561
C     0.04413  -0.40167   0.06861
C    -0.21056  -1.55848   0.94768
O    -0.35497   0.79593   0.35310
C    -1.02553   1.33945   1.36214
C    -1.50923   0.65808   2.48268
N    -1.95599   0.18777   3.46034
H     2.00742  -0.34301  -3.43863
H     0.96695   0.99675  -3.99859
H     2.49562   1.35089  -3.14798
H     0.56354   1.46862  -1.54617
H    -1.29375  -1.71284   1.09431
H     0.22346  -2.45682   0.49564
H     0.23552  -1.40182   1.94509
H    -1.17726   2.41066   1.24541
