37
Generated by autodE on: 2022-06-19. E = -1083.302370 Ha
C    -3.08324   2.46497   1.16703
O    -1.84584   1.87812   1.60244
C    -1.29529   0.82454   1.02581
C    -1.76377   0.06323  -0.01573
O    -2.96100   0.31212  -0.61366
C    -2.88696   0.84341  -1.94365
C    -1.04467  -1.12646  -0.47467
O    -1.51585  -1.85328  -1.34022
C     0.34623  -1.49573   0.10254
C     0.27463  -2.85689   0.76872
N     1.27045  -1.47678  -1.08063
C     1.25095  -2.36458  -2.07071
N     1.27987  -3.17132  -2.91268
N     1.79402  -0.22784  -1.28452
C     1.59117   0.46570  -0.21747
C     1.97816   1.89270  -0.11587
C     2.76878   2.49818  -1.23541
O     1.61897   2.51757   0.87324
C     0.99443  -0.35087   0.93089
C     2.14231  -0.80738   1.83950
C    -0.04642   0.40550   1.74247
O     0.09905   0.66684   2.91770
H    -3.90851   1.74989   1.27009
H    -3.23993   3.32149   1.83374
H    -3.00458   2.81143   0.12792
H    -3.92196   0.99338  -2.27685
H    -2.37964   0.14428  -2.62459
H    -2.35628   1.80946  -1.94276
H     1.27294  -3.21137   1.05263
H    -0.35497  -2.78662   1.66725
H    -0.18354  -3.58139   0.08121
H     2.22987   2.37755  -2.18776
H     2.94260   3.56189  -1.03121
H     3.73025   1.97065  -1.34017
H     2.87798  -1.39155   1.27083
H     2.64327   0.07366   2.26204
H     1.76125  -1.41825   2.66842
