26
Generated by autodE on: 2022-06-19. E = -689.457195 Ha
C     2.42428   2.08843   0.78258
O     1.74912   1.70475  -0.42134
C     0.70740   0.84394  -0.24085
C     0.89534  -0.50437  -0.25671
O     2.13366  -0.96865  -0.46476
C     2.55754  -2.28165  -0.07084
C    -0.29455  -1.41217  -0.18801
O    -0.16577  -2.61259  -0.39255
C    -1.62983  -0.82204   0.11107
C    -2.77946  -1.76935   0.26885
C    -1.79188   0.52314   0.18405
C    -3.12669   1.15042   0.43370
C    -0.61657   1.43124   0.02604
O    -0.73290   2.65154   0.12732
H     3.23429   2.76977   0.48992
H     2.85193   1.20818   1.28953
H     1.73835   2.61029   1.46896
H     3.65039  -2.21755   0.01589
H     2.28903  -3.02810  -0.82915
H     2.12859  -2.56545   0.90019
H    -3.28028  -1.61450   1.23827
H    -3.53986  -1.59290  -0.51024
H    -2.44831  -2.81233   0.20267
H    -3.05095   2.24384   0.45949
H    -3.54939   0.80061   1.39017
H    -3.84550   0.86130  -0.35081
