37
Generated by autodE on: 2022-06-19. E = -1083.219365 Ha. Imaginary frequency = -354.6 cm-1
C    -2.40224   2.78805  -0.21880
O    -1.47906   2.15277   0.67500
C    -1.14825   0.86753   0.57079
C    -1.64547  -0.09173  -0.26342
O    -2.61418   0.15486  -1.19114
C    -3.93623  -0.27813  -0.84677
C    -1.10803  -1.46867  -0.23229
O    -1.66395  -2.35779  -0.87545
C     0.13908  -1.74382   0.54171
C     0.61554  -3.15697   0.59875
N     1.22597  -1.16470  -1.57769
C     0.53459  -1.15465  -2.70914
N    -0.10593  -1.30130  -3.67656
N     1.72796  -0.07303  -1.12710
C     1.88718   0.46075  -0.05573
C     2.65701   1.57025   0.58061
C     2.25132   2.92990   0.11213
O     3.47724   1.32065   1.43598
C     0.67688  -0.75793   1.37368
C     1.69027  -1.11590   2.42973
C    -0.10724   0.49471   1.58833
O     0.10533   1.23684   2.53453
H    -3.41542   2.38308  -0.09111
H    -2.39107   3.84812   0.06316
H    -2.07689   2.67427  -1.26097
H    -4.58492   0.00339  -1.68668
H    -4.28290   0.22762   0.06957
H    -3.97275  -1.36755  -0.70278
H     1.71247  -3.20972   0.59082
H     0.27498  -3.62281   1.54095
H     0.21387  -3.73949  -0.23820
H     1.20124   3.09040   0.41186
H     2.90096   3.68812   0.56817
H     2.28999   2.98329  -0.98714
H     2.55514  -1.63415   1.99453
H     2.04042  -0.22222   2.95695
H     1.23224  -1.79489   3.16841
