20
Generated by autodE on: 2022-05-31. E = -975.268908 Ha
C    -3.63066   1.52247   0.15384
N    -2.26405   1.25860  -0.24718
C    -1.61223   0.14617   0.16178
O    -2.15723  -0.70754   0.87477
C    -0.21581   0.02316  -0.29670
C     0.76137  -0.77981   0.16158
Cl    0.77396  -1.93395   1.42431
C     2.04817  -0.37672  -0.59422
C     2.43985   1.02688  -0.07837
C     1.48799   1.83699  -0.54950
C     0.53156   0.91216  -1.33580
O     1.46759  -0.04533  -1.86385
H    -3.71414   1.66090   1.24453
H    -4.29183   0.68890  -0.12959
H    -3.97784   2.43543  -0.34498
H    -1.77407   1.95736  -0.79432
H     2.82982  -1.13991  -0.66560
H     3.28616   1.23977   0.57315
H     1.33745   2.90456  -0.39377
H    -0.08066   1.36419  -2.12377
