18
Generated by autodE on: 2022-05-26. E = -493.590682 Ha
C    -4.01738  -0.76875   0.39490
N    -3.00052   0.20685   0.05990
C    -1.68983  -0.11366  -0.03088
O    -1.22710  -1.21930   0.28104
C    -0.82397   0.98567  -0.51229
N     0.42893   0.74313  -0.63439
C     1.53969   0.32715  -0.75517
C     2.73562   0.18907   0.05677
C     2.81716  -1.12736   0.78456
O     3.61165   1.04560   0.06671
H    -4.42576  -1.26541  -0.50224
H    -3.58211  -1.53721   1.04565
H    -4.84415  -0.27804   0.92686
H    -3.30086   1.08131  -0.36155
H    -1.20665   1.97856  -0.76115
H     1.81615  -1.51161   1.03116
H     3.31699  -1.86290   0.13164
H     3.42272  -0.99670   1.69282
