51
Generated by autodE on: 2022-06-04. E = -1321.551378 Ha
C     3.46341   2.56189   1.46630
C     3.15859   1.12744   1.73861
O     3.93544   0.32608   2.21913
C     1.76998   0.63004   1.38133
O     0.89798   1.60988   0.84067
C    -0.25277   0.80992   0.74918
C    -1.48417   1.55010   0.35158
C    -2.73991   1.10464   0.78530
C    -3.89445   1.76416   0.35885
C    -3.79958   2.86276  -0.50090
C    -2.54520   3.30567  -0.93192
C    -1.38639   2.65117  -0.50862
O    -0.36286   0.29863   2.12122
C     0.90337   0.14857   2.56352
O     1.21035  -0.30162   3.63116
C     0.17861  -0.42499  -0.14934
C    -0.80696  -1.56334   0.07885
C    -1.90919  -1.68001  -0.78767
C    -2.89855  -2.64181  -0.57758
C    -2.81262  -3.51377   0.51043
C    -1.73140  -3.40316   1.38702
C    -0.74529  -2.43512   1.17725
C     0.36407  -0.05525  -1.65594
C     0.85930  -1.32185  -2.39836
C     2.34198  -1.44706  -1.93824
C     2.51485  -0.23736  -0.99541
C     1.63930   0.80287  -1.70847
C     1.71353  -0.54107   0.31788
C     2.18521  -1.78718   0.90286
N     2.61814  -2.77184   1.33813
H     4.48271   2.79944   1.79479
H     3.35274   2.75617   0.38642
H     2.72797   3.20190   1.97951
H    -2.81258   0.24791   1.45533
H    -4.87201   1.41683   0.70016
H    -4.70454   3.37625  -0.83374
H    -2.46670   4.16565  -1.60055
H    -0.40741   2.99384  -0.84519
H    -2.00847  -1.00602  -1.63740
H    -3.74180  -2.70496  -1.26918
H    -3.58393  -4.26944   0.67620
H    -1.65104  -4.06954   2.24888
H     0.06368  -2.37431   1.90149
H    -0.53062   0.40141  -2.09221
H     0.79165  -1.15398  -3.48233
H     0.27028  -2.21635  -2.16523
H     3.03720  -1.34299  -2.78287
H     2.56093  -2.40674  -1.45115
H     3.55706   0.03209  -0.78394
H     1.57583   1.77602  -1.21981
H     1.97467   0.94851  -2.74561
