23
Generated by autodE on: 2022-06-04. E = -725.207522 Ha
C     4.29675   0.68740   0.35494
C     2.91882   0.72420   0.97174
O     2.72177   1.09529   2.13373
C     1.83997   0.29698   0.12679
O     0.53491   0.30146   0.64406
C    -0.27665  -0.12605  -0.27326
C    -1.69635  -0.24645  -0.06283
C    -2.25320   0.10144   1.18481
C    -3.62547  -0.01948   1.37612
C    -4.44127  -0.48299   0.33585
C    -3.88748  -0.82861  -0.90287
C    -2.51630  -0.71319  -1.10950
O     0.32712  -0.42834  -1.37961
C     1.79735  -0.16743  -1.19193
O     2.54851  -0.38656  -2.10865
H     5.02779   1.05300   1.08783
H     4.55725  -0.33913   0.05125
H     4.33484   1.31064  -0.55245
H    -1.60796   0.46116   1.98743
H    -4.06467   0.24769   2.33906
H    -5.51822  -0.57587   0.49281
H    -4.52918  -1.18932  -1.70884
H    -2.07244  -0.97896  -2.06979
