23
Generated by autodE on: 2022-05-31. E = -600.129006 Ha
C     3.57814  -0.83118  -0.29253
O     2.19105  -0.62873  -0.58313
C     1.50430   0.15712   0.26910
O     2.02162   0.68257   1.24312
C     0.10529   0.28470  -0.12316
C    -0.90326   0.77275   0.63297
F    -0.82264   1.26843   1.85996
C    -2.22213   0.50508  -0.03327
C    -2.42646  -1.04727   0.07249
C    -1.30371  -1.61562  -0.84309
C    -0.58101  -0.32649  -1.34373
C    -1.78074   0.63250  -1.50788
H     3.96142  -1.48769  -1.08259
H     3.70399  -1.30935   0.69016
H     4.12056   0.12584  -0.30011
H    -3.06181   1.11260   0.32416
H    -2.35688  -1.39445   1.11285
H    -3.42657  -1.30459  -0.30482
H    -0.61063  -2.28233  -0.31118
H    -1.72513  -2.17149  -1.69360
H     0.07040  -0.46989  -2.21292
H    -2.53998   0.26129  -2.21205
H    -1.48192   1.65485  -1.78082
