25
Generated by autodE on: 2022-07-26. E = -577.042690 Ha
C     2.30482  -0.25901  -2.47487
C     1.08142  -1.05030  -2.35328
O     0.15109  -0.87040  -1.49722
C     0.03067   0.20560  -0.60511
C     0.04020   1.53737  -1.10880
C    -0.00081   1.79388  -2.60615
O    -0.02507   2.53910  -0.35305
C    -0.32151  -0.25161   0.73079
C    -0.30061  -1.63500   1.04241
C    -0.65370  -2.09645   2.31010
C    -1.02389  -1.20147   3.31928
C    -1.03500   0.16858   3.03311
C    -0.69227   0.64186   1.76743
H     2.49485   0.32187  -1.55834
H     2.24643   0.45017  -3.32069
H     3.13293  -0.94808  -2.70602
H     0.90938  -1.93507  -2.97597
H    -0.27280   0.92694  -3.22412
H    -0.74271   2.59011  -2.76757
H     0.96972   2.18158  -2.95664
H     0.00009  -2.35576   0.28157
H    -0.62974  -3.17047   2.51263
H    -1.29218  -1.56452   4.31405
H    -1.31642   0.88531   3.80935
H    -0.69978   1.70838   1.55910
