20
Generated by autodE on: 2022-06-20. E = -457.715308 Ha
C    -3.11553  -0.61440   0.11914
N    -1.82701   0.05801   0.08752
C    -1.77856   1.45419  -0.01156
C    -0.62508   2.13468  -0.10348
C     0.72807   1.46714  -0.11293
C     0.57564  -0.04242  -0.01652
C     1.74764  -0.93232  -0.00943
N     2.95805  -0.32687  -0.10682
O     1.66766  -2.17447   0.08120
C    -0.65127  -0.62982   0.07096
H    -2.95978  -1.68816   0.28173
H    -3.73921  -0.22334   0.93832
H    -3.66331  -0.47793  -0.82838
H    -2.75133   1.94934  -0.00550
H    -0.66891   3.22403  -0.17250
H     1.35056   1.85572   0.71932
H     1.28571   1.75180  -1.02897
H     3.79085  -0.90553  -0.11028
H     3.06515   0.67584  -0.19015
H    -0.73118  -1.71607   0.13629
