40
Generated by autodE on: 2022-06-20. E = -1159.862530 Ha. Imaginary frequency = -246.0 cm-1
C    -5.02170  -2.07615  -0.47007
N    -3.90788  -1.21327  -0.13273
C    -2.80434  -1.69580   0.47950
O    -2.66930  -2.89890   0.76980
C    -1.74436  -0.74230   0.75834
O    -1.87050   0.59509   0.40967
C    -0.66968   1.13858   0.55751
C    -0.55057   2.63406   0.56668
C     0.57118   3.20767   1.37025
O    -1.36196   3.28112  -0.06847
O     0.10311   0.37782   1.32574
C    -0.50757  -0.93593   1.40026
O     0.09740  -1.85153   1.91828
C     0.13576   0.77256  -1.54146
C     1.52301   1.36607  -1.60314
C     2.51620   0.44584  -0.92401
C     3.76112   1.04536  -0.38462
N     4.82612   0.23719  -0.18972
O     3.81246   2.25703  -0.11143
C     2.23674  -0.86989  -0.78143
N     1.03103  -1.42777  -1.18923
C     0.79898  -2.86570  -1.07620
C    -0.00372  -0.60419  -1.52212
H    -4.69760  -2.91089  -1.11110
H    -5.77330  -1.48805  -1.01036
H    -5.49063  -2.50584   0.43031
H    -3.97012  -0.22041  -0.33050
H     1.53625   2.77517   1.06194
H     0.42705   2.94586   2.43182
H     0.58762   4.29773   1.24832
H    -0.69444   1.35293  -1.94515
H     1.55993   2.36682  -1.15309
H     1.81514   1.51900  -2.66208
H     5.67176   0.64036   0.20087
H     4.85970  -0.71300  -0.53855
H     2.91334  -1.57385  -0.29720
H     0.86452  -3.35188  -2.06234
H     1.55241  -3.30478  -0.41166
H    -0.19796  -3.04774  -0.65289
H    -0.94238  -1.09732  -1.77142
