39
Generated by autodE on: 2022-07-27. E = -936.036962 Ha
C    -0.73869  -0.71642   3.41054
N    -0.02722  -0.28543   2.22183
C     0.36383  -1.17587   1.28630
O     0.37445  -2.39539   1.48035
C     0.88095  -0.60016  -0.00894
C     2.16998  -1.09377  -0.48722
C     3.18589  -1.37921   0.45233
C     4.42570  -1.85556   0.03406
C     4.67504  -2.07103  -1.32641
C     3.67068  -1.81244  -2.26515
C     2.42944  -1.32967  -1.85375
N     0.12681   0.28508  -0.66850
C     0.70110   1.20425  -1.67195
C    -1.25952   0.29065  -0.49931
C    -1.90339  -0.95340  -0.38559
N    -2.48267  -1.97199  -0.32320
C    -2.01627   1.52303  -0.29138
C    -1.41197   2.67503   0.26125
C    -2.15461   3.83525   0.48230
C    -3.52029   3.87289   0.18185
C    -4.13717   2.73010  -0.34254
C    -3.39859   1.57245  -0.57902
H    -0.86402   0.14219   4.08137
H    -0.17289  -1.49883   3.93567
H    -1.73355  -1.12184   3.15886
H    -0.07054   0.69707   1.96925
H     3.00445  -1.20784   1.51509
H     5.20372  -2.05917   0.77307
H     5.64688  -2.44808  -1.65281
H     3.85134  -1.99803  -3.32628
H     1.64717  -1.16724  -2.59479
H     1.75200   1.40335  -1.43721
H     0.13605   2.14020  -1.65026
H     0.60621   0.77023  -2.67492
H    -0.35567   2.65440   0.53899
H    -1.66355   4.71263   0.91038
H    -4.10081   4.78020   0.36289
H    -5.20467   2.74344  -0.57589
H    -3.89028   0.69087  -0.99657
