26
Generated by autodE on: 2022-06-29. E = -689.460831 Ha
C     2.60360   2.04791   0.74108
O     1.18355   1.93748   0.88273
C     0.48696   0.91676   0.38320
C     0.90650  -0.10246  -0.41886
O     2.17973  -0.19075  -0.90397
C     2.99052  -1.23954  -0.36313
C    -0.05177  -1.12923  -0.88204
O     0.32888  -2.00984  -1.65158
C    -1.47349  -1.07918  -0.42478
C    -2.38990  -2.16755  -0.88699
C    -1.90548  -0.05995   0.35836
C    -3.32745   0.04832   0.81527
C    -0.95821   0.99625   0.79808
O    -1.31886   1.92826   1.50380
H     2.88048   2.94771   1.30500
H     3.11003   1.17350   1.17443
H     2.88959   2.16541  -0.31185
H     3.97273  -1.15592  -0.84683
H     2.56125  -2.22928  -0.57643
H     3.10870  -1.11592   0.72629
H    -1.85074  -2.91602  -1.47914
H    -2.86730  -2.66598  -0.02761
H    -3.20655  -1.75279  -1.50165
H    -4.01418   0.06619  -0.04667
H    -3.60841  -0.82756   1.42350
H    -3.48482   0.95463   1.41172
