65
Generated by autodE on: 2022-06-29. E = -1625.479674 Ha. Imaginary frequency = -194.2 cm-1
C     1.34535  -0.44526   4.24960
N     1.52378   0.02182   2.88951
C     1.25084  -0.77846   1.84130
O     1.01068  -1.97658   1.98053
C     1.41783  -0.07069   0.48670
C     2.75072  -0.29417  -0.10775
C     3.63766  -1.23622   0.45875
C     4.87577  -1.50046  -0.12561
C     5.26121  -0.83924  -1.29465
C     4.38530   0.07867  -1.88404
C     3.14530   0.33977  -1.30790
N     0.82113   1.18846   0.42504
C     1.62802   2.40017   0.16402
C    -0.53375   1.33407   0.71212
C    -1.08537   0.62596   1.82360
N    -1.61916   0.10548   2.72037
C    -1.33499   2.45769   0.22747
C    -1.02158   3.14037  -0.97181
C    -1.86656   4.12890  -1.47049
C    -3.04632   4.46406  -0.79935
C    -3.37339   3.79778   0.38649
C    -2.53314   2.81101   0.89385
C    -1.09563  -0.33029  -1.07045
O    -1.08645   0.57391  -2.06722
C    -2.24765   0.84689  -2.86070
C    -2.32054  -0.68929  -0.34838
O    -3.34615  -0.00133  -0.42845
C    -2.29370  -1.91603   0.49775
C    -3.50965  -2.19140   1.33011
C    -1.22845  -2.75867   0.49516
C    -1.20847  -4.01433   1.30973
C    -0.04487  -2.48169  -0.36546
O     0.77533  -3.35488  -0.64201
C     0.08117  -1.13379  -0.97932
O     0.95087  -1.06464  -2.04237
C     0.52426  -1.69911  -3.24770
H     1.65813   0.34656   4.94074
H     0.28763  -0.69304   4.43957
H     1.94983  -1.34494   4.43636
H     1.66458   1.01448   2.73255
H     3.36192  -1.78051   1.36089
H     5.54299  -2.22975   0.33909
H     6.23270  -1.04475  -1.74998
H     4.66375   0.58710  -2.80987
H     2.46391   1.01862  -1.81218
H     1.15780   3.23937   0.68805
H     1.72664   2.65351  -0.89585
H     2.62846   2.23840   0.58183
H    -0.13486   2.88031  -1.53963
H    -1.60347   4.63452  -2.40228
H    -3.70633   5.23819  -1.19708
H    -4.29130   4.04857   0.92275
H    -2.80757   2.30579   1.81970
H    -1.87235   1.36330  -3.75376
H    -2.96225   1.48793  -2.33324
H    -2.73862  -0.09114  -3.15996
H    -4.06404  -3.06121   0.93720
H    -4.18697  -1.32951   1.33451
H    -3.22901  -2.43171   2.36619
H    -2.08339  -4.64651   1.08807
H    -0.29729  -4.59258   1.11611
H    -1.25092  -3.77387   2.38459
H    -0.42746  -1.28271  -3.61274
H     1.30943  -1.50699  -3.99184
H     0.41836  -2.78620  -3.10829
