9
Generated by autodE on: 2022-10-26. E = -321.303029 Ha
C    -1.94630   0.30310   0.45856
C    -0.53368   0.14812   0.06053
C     0.34733  -0.79510   0.68796
N     0.98396  -1.58487   1.25435
O    -0.05845   0.86661  -0.87527
O     1.23237   0.71657  -1.23641
H    -2.00111   0.56842   1.52752
H    -2.42203   1.08078  -0.15205
H    -2.47155  -0.65816   0.32982
