23
Generated by autodE on: 2022-10-20. E = -650.084133 Ha
C     3.64005   0.02364  -0.74621
O     2.31811  -0.39025  -0.39102
C     1.41571   0.59424  -0.15816
O     1.71597   1.77553  -0.26553
C     0.14181   0.02895   0.24166
C    -1.14576   0.48363   0.24938
O    -1.79212   1.57069  -0.11430
C    -1.11066   2.63817  -0.79074
C    -2.00675  -0.70922   0.72316
C    -2.00538  -1.72715  -0.43723
C    -0.75684  -2.20402  -0.45832
C    -0.02466  -1.45581   0.67490
O    -1.09225  -1.32513   1.63518
H     4.21926  -0.89707  -0.88592
H     3.63028   0.60706  -1.67886
H     4.08756   0.63243   0.05368
H    -0.64420   2.25761  -1.71066
H    -0.34354   3.07747  -0.14201
H    -1.88254   3.37739  -1.03538
H    -2.96609  -0.44347   1.17996
H    -2.84657  -1.92440  -1.10027
H    -0.29228  -2.91017  -1.14585
H     0.86268  -1.92815   1.10559
