32
Generated by autodE on: 2022-10-20. E = -971.386564 Ha. Imaginary frequency = -268.3 cm-1
C     3.65354  -1.19316   0.11283
O     2.27677  -0.80355   0.20500
C     1.91359   0.29022  -0.46795
O     2.68665   0.97242  -1.12132
C     0.48850   0.60099  -0.34686
O     0.07077  -0.93306  -1.95152
O    -1.25327  -0.97588  -1.71415
C    -1.58025  -1.38500  -0.51095
C    -3.02910  -1.29899  -0.17254
C    -0.72740  -2.33509   0.13295
N    -0.09522  -3.12055   0.71341
C    -0.36306   0.37498   0.73550
O     0.00226  -0.22053   1.87039
C    -0.95708  -0.29957   2.93318
C    -1.41332   1.51404   0.63404
C    -0.64450   2.80898   0.98458
C     0.16845   3.01778  -0.05753
C    -0.10569   1.84479  -1.02270
O    -1.50829   1.62531  -0.78507
H     4.30610  -0.40388   0.51322
H     3.74774  -2.10515   0.71339
H     3.92599  -1.39694  -0.93297
H    -3.17114  -1.33217   0.91445
H    -3.44563  -0.36664  -0.57559
H    -3.56904  -2.15370  -0.61576
H    -1.85253  -0.84838   2.60955
H    -0.46391  -0.84733   3.74472
H    -1.23539   0.70537   3.28460
H    -2.38482   1.34750   1.10810
H    -0.75066   3.36734   1.91356
H     0.92092   3.78996  -0.21101
H     0.12341   1.98163  -2.08300
