39
Generated by autodE on: 2022-06-17. E = -843.949752 Ha
C     0.70346  -1.41835   2.39306
C     0.38575  -1.77809   1.14163
C     0.02706  -3.18317   0.75547
C     0.31836  -0.75867   0.02265
C     1.27796   0.40191   0.12383
C     2.72509   0.17106   0.44583
O     3.29598  -0.85421   0.13472
O     3.28940   1.19057   1.08122
C     4.68395   1.05392   1.40637
N     0.83377   1.56025  -0.18260
C    -0.59267   1.41407  -0.57337
C    -1.45274   2.54312  -0.00839
C    -0.63054   1.46418  -2.04726
N    -0.65974   1.50368  -3.20666
C    -1.03125   0.00017  -0.05322
C    -2.10680  -0.67370  -0.84402
C    -3.40759  -0.78152  -0.51360
C    -4.01897  -0.23562   0.74767
C    -4.37694  -1.47782  -1.43057
H     0.72393  -2.15086   3.20515
H     0.94925  -0.38383   2.65433
H     0.74329  -3.57168   0.01094
H     0.01943  -3.85863   1.62293
H    -0.96715  -3.20974   0.27699
H     0.51906  -1.26451  -0.93921
H     4.83953   0.17612   2.04967
H     5.27983   0.94794   0.48870
H     4.95973   1.97146   1.93784
H    -1.36930   2.54088   1.08775
H    -1.12493   3.51914  -0.39328
H    -2.50515   2.38372  -0.28430
H    -1.35776   0.17340   0.98028
H    -1.78090  -1.09929  -1.79988
H    -3.29001   0.21958   1.43010
H    -4.77612   0.52892   0.50077
H    -4.55254  -1.03433   1.29118
H    -5.19559  -0.79659  -1.72215
H    -3.88989  -1.84822  -2.34451
H    -4.85399  -2.33140  -0.91754
