23
Generated by autodE on: 2022-06-17. E = -351.521384 Ha
C    -2.79289  -2.44312  -0.72835
C    -2.20892  -1.32089  -0.25367
C    -3.00970  -0.26512   0.46493
C    -0.77337  -1.11311  -0.43314
C    -0.07037  -0.03479  -0.00431
C     1.35522   0.12161  -0.20914
C     2.12824   1.16433   0.18688
C     1.61709   2.36770   0.92700
C     3.60290   1.18067  -0.10111
H    -3.86467  -2.62390  -0.60783
H    -2.20903  -3.20802  -1.24962
H    -2.63043  -0.10651   1.48817
H    -2.93863   0.70703  -0.05066
H    -4.07058  -0.54517   0.52941
H    -0.23682  -1.90963  -0.96270
H    -0.59812   0.76321   0.52487
H     1.84940  -0.69906  -0.74316
H     2.14074   2.47210   1.89376
H     1.83960   3.28815   0.35875
H     0.53770   2.34042   1.12417
H     3.87537   2.06934  -0.69847
H     3.93052   0.28215  -0.64436
H     4.18383   1.25384   0.83593
