16
Generated by autodE on: 2022-06-17. E = -492.339088 Ha
C     3.68411  -0.02371   0.60710
O     2.39699  -0.25721   0.00299
C     1.42114  -0.64588   0.81856
O     1.51939  -0.83428   2.01403
C     0.18998  -0.92749   0.08052
N    -0.81216  -0.29048  -0.13640
C    -1.94268   0.28312  -0.37807
C    -3.08714   0.23034   0.59761
C    -2.08234   0.98354  -1.61115
N    -2.23870   1.56783  -2.60770
H     4.35083   0.25774  -0.21541
H     3.61903   0.79132   1.34171
H     4.04538  -0.93851   1.09777
H    -3.97375  -0.21952   0.12315
H    -3.35662   1.24536   0.93044
H    -2.80465  -0.36884   1.47320
