39
Generated by autodE on: 2022-06-17. E = -843.854028 Ha. Imaginary frequency = -361.5 cm-1
C     0.36611  -0.58860   2.96310
C     0.70008  -1.34284   1.89922
C     1.80658  -2.36356   1.97248
C     0.02191  -1.25590   0.58019
C     1.31378   0.35260  -0.18280
C     2.72684   0.05450  -0.44625
O     3.11267  -0.39603  -1.50546
O     3.46989   0.24587   0.63891
C     4.85078  -0.15381   0.55325
N     0.60887   1.33401  -0.30137
C    -0.63687   1.77832  -0.12488
C    -0.98767   2.54883   1.11808
C    -1.45593   1.88635  -1.27244
N    -2.18573   1.92317  -2.18376
C    -1.27149  -0.77233   0.38826
C    -2.03550  -1.10262  -0.79053
C    -3.32660  -0.77083  -1.05276
C    -4.18912   0.03189  -0.12055
C    -3.99741  -1.21499  -2.32119
H     0.89439  -0.69729   3.91425
H    -0.43985   0.14810   2.92341
H     2.54124  -2.21846   1.16378
H     2.33685  -2.32489   2.93463
H     1.39853  -3.38054   1.83876
H     0.39719  -1.95559  -0.17413
H     4.92030  -1.22165   0.30227
H     5.37289   0.44200  -0.20842
H     5.27697   0.03528   1.54448
H    -0.41819   2.16112   1.97327
H    -0.76417   3.62371   1.00524
H    -2.06259   2.44496   1.32407
H    -1.78306  -0.29996   1.22796
H    -1.49850  -1.67872  -1.55384
H    -3.64190   0.43898   0.73973
H    -4.65243   0.87519  -0.65942
H    -5.02161  -0.58494   0.26436
H    -4.34493  -0.34461  -2.90521
H    -3.32727  -1.81265  -2.95683
H    -4.89742  -1.81806  -2.10199
