38
Generated by autodE on: 2022-06-12. E = -996.923337 Ha
C    -3.12381  -2.36059  -1.40782
O    -2.04806  -1.42627  -1.24946
C    -2.26515  -0.38996  -0.43623
O    -3.35447  -0.13109   0.04183
C    -1.04818   0.44049  -0.20270
C    -1.33791   1.90233  -0.26471
O    -2.06760   2.40546  -1.09938
O    -0.74433   2.59933   0.70694
C    -0.84601   4.02737   0.63210
C     0.19246  -0.07961   0.03915
C     1.40786   0.76848   0.03537
C     2.39322   0.60289   1.02515
C     3.53233   1.40881   1.03028
C     3.71536   2.37362   0.03414
C     2.75244   2.52971  -0.96885
C     1.60677   1.73460  -0.96834
C     0.39088  -1.52186   0.31763
C     1.45127  -2.22256  -0.28433
C     1.63022  -3.58386  -0.03544
C     0.76903  -4.25827   0.83649
C    -0.27372  -3.56430   1.45975
C    -0.46308  -2.20685   1.20182
H    -4.01269  -1.86350  -1.82144
H    -2.75813  -3.12610  -2.10166
H    -3.37509  -2.81616  -0.43842
H    -0.30374   4.41409   1.50249
H    -0.38196   4.39146  -0.29660
H    -1.89794   4.34438   0.66576
H     2.25325  -0.14871   1.80414
H     4.28215   1.28183   1.81441
H     4.61166   2.99821   0.03465
H     2.89771   3.26959  -1.75916
H     0.86698   1.84758  -1.76344
H     2.12447  -1.69942  -0.96588
H     2.44710  -4.12075  -0.52290
H     0.91527  -5.32223   1.03671
H    -0.93883  -4.08124   2.15512
H    -1.26723  -1.66567   1.70449
