21
Generated by autodE on: 2022-06-12. E = -532.914975 Ha
C     3.70864   0.57209  -0.37383
O     2.59014  -0.30925  -0.49286
C     1.38458   0.19918  -0.14851
O     1.27970   1.36152   0.24391
C     0.30683  -0.76494  -0.30312
C     0.58487  -2.15205  -0.80573
N    -0.96787  -0.41401   0.00751
C    -1.99789  -1.45623  -0.20104
C    -1.38458   0.78121   0.48368
C    -2.72508   1.05327   0.77961
N    -3.82317   1.36111   1.05160
H     3.58751   1.45054  -1.02542
H     3.83277   0.91088   0.66566
H     4.58498  -0.00839  -0.68643
H     0.29174  -2.92548  -0.07662
H     0.04935  -2.37146  -1.74431
H     1.65455  -2.26573  -0.99913
H    -2.00588  -1.75391  -1.25562
H    -2.97959  -1.06372   0.07324
H    -1.76671  -2.32762   0.42199
H    -0.63673   1.55198   0.64000
