21
Generated by autodE on: 2022-07-27. E = -532.911141 Ha
C     1.83968   0.90142   2.61206
O     1.34078   1.20110   1.30706
C     0.68122   0.20313   0.67265
O     0.51617  -0.89151   1.20249
C     0.31174   0.57471  -0.68696
C     0.89251   1.80636  -1.31939
N    -0.39117  -0.29489  -1.44991
C    -0.24349  -0.18838  -2.91796
C    -1.26101  -1.24340  -1.03468
C    -1.89621  -1.22863   0.21098
N    -2.49967  -1.23165   1.21428
H     1.02139   0.60610   3.28576
H     2.58185   0.08986   2.57210
H     2.31168   1.82238   2.97509
H     0.21011   2.24338  -2.06161
H     1.07675   2.56181  -0.54769
H     1.85533   1.60969  -1.82485
H     0.81385  -0.07392  -3.18006
H    -0.80968   0.68035  -3.27889
H    -0.64885  -1.09452  -3.37848
H    -1.58251  -1.97946  -1.76922
