59
Generated by autodE on: 2022-06-12. E = -1529.808276 Ha. Imaginary frequency = -239.9 cm-1
C    -1.55199  -3.33501   2.77915
O    -1.70256  -2.41224   1.69155
C    -0.63743  -1.65583   1.38958
O     0.40053  -1.71196   2.01753
C    -0.88656  -0.79668   0.18880
C    -2.32199  -0.93770  -0.29452
O    -2.78277  -1.83794  -0.96546
O    -3.06943   0.06503   0.17967
C    -4.44971   0.08419  -0.21142
C     0.05044  -2.03681  -1.40496
C     0.23217  -3.26273  -0.69435
N     0.15934  -4.31083  -0.18916
N     1.03322  -1.17536  -1.84995
C     0.97373  -0.80775  -3.28002
C     1.86227  -0.46706  -1.03152
C     2.62720   0.68779  -1.60460
C     2.48852  -1.19196   0.10394
O     2.50883  -2.40661   0.20211
O     3.11468  -0.38577   0.95917
C     3.72115  -0.99438   2.10381
C    -0.22408   0.47783   0.14889
C    -0.54140   1.41673  -0.95311
C    -1.21905   0.99817  -2.12171
C    -1.50100   1.87803  -3.16450
C    -1.11697   3.21940  -3.08510
C    -0.45704   3.66362  -1.93640
C    -0.18046   2.78335  -0.89047
C     0.23413   1.09453   1.43813
C     1.43480   1.80889   1.58061
C     1.77480   2.41554   2.79156
C     0.91229   2.33836   3.88890
C    -0.30449   1.66331   3.75502
C    -0.63991   1.05801   2.54335
H    -1.32533  -2.79657   3.71039
H    -2.51194  -3.85683   2.86514
H    -0.74736  -4.05021   2.55955
H    -4.88554   0.96905   0.26615
H    -4.53018   0.16237  -1.30555
H    -4.96025  -0.82687   0.13140
H    -0.73467  -2.18234  -2.14835
H     1.85872  -1.23062  -3.77856
H     0.07467  -1.24284  -3.72599
H     0.96118   0.27401  -3.42734
H     1.95371   1.48239  -1.96046
H     3.29270   1.10713  -0.84415
H     3.25314   0.36919  -2.45534
H     4.12809  -0.16983   2.70055
H     2.96872  -1.54726   2.68255
H     4.52709  -1.67728   1.79808
H    -1.53064  -0.03394  -2.24867
H    -2.02243   1.50541  -4.04917
H    -1.33578   3.90944  -3.90301
H    -0.15844   4.71062  -1.84502
H     0.31289   3.17459  -0.00386
H     2.11699   1.88930   0.73992
H     2.72245   2.95298   2.87500
H     1.18051   2.81144   4.83652
H    -1.00209   1.61293   4.59457
H    -1.60573   0.55915   2.44519
