50
Generated by autodE on: 2022-06-04. E = -3719.353426 Ha
C    -2.09662   3.55203   2.01290
N    -1.31202   2.33438   2.04373
C    -1.31740   1.48507   0.99594
O    -2.06032   1.59925   0.01993
N    -0.44637   0.38486   1.11670
N     0.62612   0.52167   2.03111
N     1.75278   0.61586   1.17725
C     2.21786   1.92100   0.97283
O     2.65939   2.32910  -0.08342
O     2.16052   2.64046   2.09270
C     2.58813   4.00637   1.98884
C     1.44247  -0.21143   0.00463
C     0.08781  -0.30615  -0.03689
C    -0.87957  -0.94475  -0.99589
Br   -2.39987  -1.73644   0.08299
C    -1.41504   0.11886  -2.00493
C    -2.83442   0.05656  -2.48519
O    -0.59687   0.87986  -2.48477
C    -0.34077  -2.08379  -1.88012
C     0.14646  -3.35118  -1.18571
C     1.32797  -3.16715  -0.23476
C     2.51205  -2.41840  -0.85411
C     2.59425  -0.83799  -0.78082
C     2.66850  -0.22427  -2.19680
C     3.93910  -0.53085  -0.08231
H    -1.69165   4.29281   1.30201
H    -3.13313   3.33176   1.72171
H    -2.10177   3.99672   3.01613
H    -0.53248   2.25047   2.69024
H     0.70688  -0.37062   2.52679
H     2.45798   4.43562   2.98882
H     1.96800   4.54779   1.25999
H     3.64373   4.05831   1.68670
H    -2.94972   0.74282  -3.33423
H    -3.51194   0.34796  -1.67220
H    -3.10229  -0.96658  -2.78799
H     0.46548  -1.66078  -2.49272
H    -1.14041  -2.34931  -2.58780
H     0.44884  -4.04573  -1.98772
H    -0.69123  -3.83097  -0.65793
H     1.00757  -2.68259   0.70096
H     1.67702  -4.17065   0.05798
H     2.59832  -2.71384  -1.91239
H     3.42329  -2.79493  -0.36990
H     2.82307   0.86117  -2.13316
H     1.75518  -0.39330  -2.77964
H     3.51459  -0.66644  -2.74564
H     4.16374   0.54167  -0.05167
H     3.95821  -0.92787   0.94280
H     4.74289  -1.02217  -0.65034
