50
Generated by autodE on: 2022-06-04. E = -3719.248009 Ha. Imaginary frequency = -313.7 cm-1
C    -1.91463   3.66343   2.51920
N    -1.25958   2.37834   2.67631
C    -1.21464   1.52596   1.61196
O    -1.98960   1.61063   0.66389
N    -0.38158   0.41271   1.79634
N     0.82865   0.48737   2.26657
N     1.88405   0.92273   1.62601
C     1.74527   2.04644   0.80275
O     0.85110   2.86990   0.82647
O     2.80577   2.13385   0.00314
C     2.74535   3.13233  -1.02283
C     1.51620  -0.56945  -0.12777
C     0.28079  -0.44245  -0.21912
C    -0.88869  -0.69792  -1.06585
Br   -2.29429  -1.67992  -0.02620
C    -1.43715   0.62243  -1.67580
C    -2.88364   0.71274  -2.06092
O    -0.62638   1.48206  -1.96577
C    -0.48077  -1.56692  -2.28820
C    -0.03187  -3.01175  -2.04663
C     1.12369  -3.27084  -1.06895
C     2.41331  -2.47048  -1.33596
C     2.76232  -1.35698  -0.29519
C     3.95028  -0.54598  -0.82919
C     3.14142  -1.99872   1.05462
H    -1.39199   4.30859   1.79126
H    -2.94820   3.52465   2.17455
H    -1.93768   4.17297   3.49126
H    -0.46478   2.35245   3.30768
H     1.08471  -0.29517   2.87862
H     1.87117   2.95397  -1.66584
H     3.67066   3.02439  -1.60010
H     2.68496   4.13875  -0.58477
H    -3.49958   0.78257  -1.15498
H    -3.03091   1.60533  -2.68274
H    -3.20028  -0.18688  -2.60964
H     0.32026  -0.99736  -2.78498
H    -1.32948  -1.58718  -2.98969
H    -0.90169  -3.60459  -1.72349
H     0.25204  -3.40258  -3.03892
H     1.35027  -4.34753  -1.12195
H     0.77539  -3.09963  -0.03902
H     2.36633  -2.00115  -2.33191
H     3.28304  -3.14594  -1.35779
H     4.30777   0.17725  -0.08625
H     3.68084   0.00311  -1.74380
H     4.77457  -1.23540  -1.06937
H     3.38618  -1.22384   1.79399
H     2.32196  -2.61213   1.45767
H     4.02227  -2.64505   0.91679
