69
Generated by autodE on: 2022-10-24. E = -1748.120020 Ha
C     4.59063 -26.38226 -13.64983
O     3.25577 -25.93537 -13.35813
C     3.09528 -24.63826 -13.13221
O     3.97336 -23.80759 -13.22144
C     1.61913 -24.27413 -12.91549
C     0.84461 -25.38563 -12.31093
N     0.14568 -26.22033 -11.90835
N     1.10974 -23.94244 -14.23930
C     0.16733 -22.80808 -14.16117
C    -1.26408 -23.36249 -14.20306
C    -2.05324 -23.48020 -13.05172
C    -3.30303 -24.10457 -13.10442
C    -3.78109 -24.62620 -14.30911
C    -2.99730 -24.52037 -15.46277
C    -1.75051 -23.89396 -15.40861
C     0.48330 -21.81164 -15.29338
C     1.82514 -21.60089 -15.64357
C     2.17365 -20.64899 -16.60386
C     1.18053 -19.89335 -17.23533
C    -0.15931 -20.10012 -16.89547
C    -0.50491 -21.05038 -15.93006
C     0.54383 -22.20038 -12.80306
C     1.39223 -22.98185 -12.10465
C     2.07676 -22.68537 -10.77300
C     2.77972 -23.91387 -10.11819
C     3.35216 -23.73879  -8.73612
O     2.88398 -24.98574 -10.68342
C     1.06828 -22.25460  -9.65250
C    -0.09155 -23.18298  -9.40928
O     1.33122 -21.34126  -8.89509
C     3.25552 -21.65780 -10.94101
C     3.18393 -20.59829 -12.03988
C     2.12088 -19.50098 -11.86599
C     0.85983 -19.64642 -12.71547
C    -0.03162 -20.84652 -12.40845
F    -1.19695 -20.64276 -13.18345
O    -0.44627 -20.95114 -11.09551
C    -0.99840 -19.79996 -10.46048
H     5.25071 -26.17091 -12.79658
H     4.97382 -25.87996 -14.54918
H     4.51649 -27.46255 -13.81696
H     0.71145 -24.74871 -14.71466
H    -1.69899 -23.08123 -12.10182
H    -3.90398 -24.18268 -12.19525
H    -4.75783 -25.11397 -14.34975
H    -3.35777 -24.92672 -16.41083
H    -1.14710 -23.82001 -16.31580
H     2.59873 -22.18903 -15.14966
H     3.22528 -20.49683 -16.85863
H     1.44908 -19.14869 -17.98845
H    -0.94466 -19.51707 -17.38260
H    -1.55221 -21.18574 -15.66414
H     4.13482 -24.49262  -8.58239
H     2.54773 -23.92718  -8.00577
H     3.73943 -22.73181  -8.54568
H    -0.48125 -23.62936 -10.33051
H    -0.88730 -22.65361  -8.87003
H     0.26825 -24.00397  -8.76503
H     3.37239 -21.15466  -9.97229
H     4.17370 -22.23779 -11.11394
H     3.09264 -21.06999 -13.02939
H     4.17616 -20.11962 -12.03378
H     2.56481 -18.53397 -12.14844
H     1.85579 -19.40842 -10.80170
H     1.12851 -19.70440 -13.77912
H     0.22870 -18.75204 -12.60164
H    -1.41008 -20.14943  -9.50520
H    -1.80952 -19.37303 -11.06868
H    -0.23663 -19.03175 -10.26329
