35
Generated by autodE on: 2022-10-26. E = -916.598702 Ha
C     4.54509   0.43430   0.78348
O     3.52475  -0.55907   0.89464
C     2.24142  -0.11234   0.85685
O     1.96646   1.07214   0.68306
C     1.30016  -1.17808   1.05981
C     1.70524  -2.45383   1.48204
N     2.02660  -3.52229   1.84058
N    -0.07804  -0.94334   0.97056
C    -0.74309  -0.16288   0.13823
C    -2.14143   0.14294   0.45821
C    -2.58558   0.19091   1.79658
C    -3.92602   0.44075   2.08627
C    -4.84129   0.65355   1.05038
C    -4.40952   0.61841  -0.28048
C    -3.07158   0.37044  -0.57810
C    -0.12632   0.34424  -1.09819
C     0.62893  -0.51546  -1.91671
C     1.17362  -0.04402  -3.10893
C     0.98911   1.29131  -3.48909
C     0.24182   2.15022  -2.67845
C    -0.32103   1.67865  -1.49190
H     4.48393   1.15974   1.60907
H     4.46695   0.97201  -0.17348
H     5.49949  -0.10420   0.83176
H    -0.64461  -1.42095   1.67699
H    -1.87444   0.06793   2.61607
H    -4.25438   0.48524   3.12678
H    -5.89016   0.85428   1.27994
H    -5.12191   0.78090  -1.09205
H    -2.74566   0.32735  -1.61762
H     0.77552  -1.55641  -1.62484
H     1.74493  -0.72129  -3.74748
H     1.42617   1.65943  -4.42007
H     0.09516   3.19225  -2.97065
H    -0.90095   2.34926  -0.85594
