35
Generated by autodE on: 2022-10-24. E = -916.604364 Ha
C     5.44657   0.15002   0.30469
O     4.14575   0.60630  -0.07939
C     3.10342  -0.15721   0.29996
O     3.23079  -1.19710   0.94770
C     1.82861   0.35676  -0.13539
C     1.71874   1.49648  -0.94362
N     1.67465   2.44827  -1.62350
N     0.75669  -0.45047   0.21583
C    -0.54965  -0.33182   0.11304
C    -1.17200   0.95073  -0.26706
C    -2.10766   0.99994  -1.31499
C    -2.71207   2.20923  -1.65779
C    -2.40749   3.37343  -0.94394
C    -1.49250   3.32611   0.11261
C    -0.87096   2.12345   0.44764
C    -1.37968  -1.50757   0.40557
C    -2.70732  -1.33636   0.84926
C    -3.49723  -2.44244   1.15799
C    -2.98249  -3.73645   1.02496
C    -1.66978  -3.91898   0.57643
C    -0.87512  -2.81765   0.26379
H     5.66020  -0.83649  -0.13295
H     5.53185   0.08710   1.39971
H     6.15375   0.89256  -0.08376
H     1.11098  -1.32061   0.63384
H    -2.34920   0.08828  -1.86461
H    -3.42651   2.24308  -2.48325
H    -2.88725   4.31829  -1.20936
H    -1.25967   4.23113   0.67786
H    -0.15623   2.08917   1.27235
H    -3.11161  -0.33069   0.96941
H    -4.52061  -2.29317   1.50910
H    -3.60504  -4.60167   1.26351
H    -1.26678  -4.92665   0.45423
H     0.13377  -2.98217  -0.12114
