34
Generated by autodE on: 2022-10-24. E = -831.448903 Ha
C    -3.38537  -0.90174   2.17808
O    -3.17674  -1.26061   0.81389
C    -1.86854  -1.52140   0.45935
F    -1.44101  -2.67135   1.15579
C    -0.89823  -0.45223   0.75752
C     0.06963   0.23190   0.50513
C     1.19929   0.80427  -0.21398
C     2.40619   1.05462   0.73140
C     3.74936   1.24877   0.09540
O     2.23091   1.09706   1.93342
C     0.84055   2.20778  -0.80500
C    -0.07417   3.07186   0.00751
O     1.32480   2.55861  -1.86052
C     1.54656  -0.20304  -1.35115
C     0.34318  -0.73660  -2.15632
C    -0.39719  -1.99900  -1.62928
C    -1.80892  -1.82220  -1.04030
H    -2.79385  -0.00899   2.44536
H    -3.11603  -1.72875   2.85341
H    -4.45372  -0.67484   2.28649
H     4.45889   1.62904   0.84123
H     4.11074   0.28059  -0.28770
H     3.68672   1.93127  -0.76456
H    -0.04456   4.10435  -0.36317
H    -1.10117   2.68084  -0.07895
H     0.19652   3.02768   1.07355
H     2.23628   0.31133  -2.03299
H     2.09513  -1.04712  -0.90589
H     0.74231  -0.98885  -3.15055
H    -0.37912   0.07852  -2.33101
H     0.23411  -2.53369  -0.90018
H    -0.50782  -2.68892  -2.47915
H    -2.34398  -1.00945  -1.55498
H    -2.39837  -2.74226  -1.17935
