27
Generated by autodE on: 2022-07-27. E = -798.034865 Ha
C     0.32236  -3.03902   1.14385
O     0.44013  -1.89440   0.28200
C     0.11941  -0.72080   0.80725
O    -0.20812  -0.53686   1.95984
C     0.30984   0.39024  -0.18036
C     1.57221   0.39398  -0.97817
O     1.66854   0.79115  -2.12014
O     2.57207  -0.12362  -0.27085
C     3.83648  -0.26694  -0.94113
N    -0.55200   1.38446  -0.26846
C    -0.22613   2.61786  -1.01989
N    -1.75979   1.44701   0.29201
C    -2.50571   0.30135   0.35762
C    -3.80944   0.47781   1.08508
O    -2.19169  -0.78860  -0.14132
H     0.61533  -3.90251   0.53668
H    -0.71723  -3.14389   1.48491
H     0.99042  -2.93494   2.01043
H     4.21005   0.71597  -1.26073
H     3.72752  -0.92437  -1.81539
H     4.51456  -0.71492  -0.20668
H     0.83723   2.85804  -0.93555
H    -0.50047   2.46953  -2.07202
H    -0.83941   3.41013  -0.58239
H    -4.59166  -0.12043   0.59651
H    -3.67669   0.08274   2.10733
H    -4.11016   1.53057   1.15237
