12
Generated by autodE on: 2022-06-20. E = -381.636098 Ha
O    -1.06001   2.44695  -0.01535
C    -0.57216   1.32141  -0.00802
C    -1.43113   0.11278  -0.01002
C    -0.89725  -1.12114  -0.00219
C     0.57215  -1.32141   0.00821
O     1.06001  -2.44695   0.01526
C     1.43113  -0.11278   0.01000
C     0.89725   1.12114   0.00217
H    -2.50994   0.28496  -0.01794
H    -1.51010  -2.02552  -0.00334
H     2.50994  -0.28495   0.01781
H     1.51009   2.02552   0.00320
