37
Generated by autodE on: 2022-06-20. E = -1046.163779 Ha
C     0.45465   2.29349  -1.89967
O    -0.55960   1.94492  -0.95374
C    -0.29534   0.90668  -0.05384
C     1.16026   0.98787   0.47329
O     1.42687   1.89457   1.24536
C     2.17039   0.02339  -0.00218
C     3.58193   0.24781   0.43826
C     1.83122  -1.04804  -0.77995
C     2.86426  -2.02721  -1.23409
C     0.42680  -1.32803  -1.17329
O     0.14227  -2.21918  -1.95564
C    -0.70503  -0.51684  -0.53771
O    -1.84660  -0.48452  -1.33252
C    -1.77267  -0.03557  -2.68738
C    -1.19823  -1.17104   0.83156
C    -2.27955  -2.23251   0.63476
C    -0.08611  -1.77542   1.58591
N     0.75883  -2.27371   2.20403
N    -1.69962  -0.03089   1.63887
C    -1.22713   1.04648   1.14462
C    -1.52872   2.34273   1.68392
N    -1.76878   3.39992   2.09784
H    -0.01560   2.99146  -2.60356
H     1.30282   2.79578  -1.40750
H     0.82063   1.41383  -2.45072
H     3.93831  -0.61521   1.02464
H     4.25026   0.33686  -0.43317
H     3.66825   1.15334   1.04899
H     3.70122  -1.51187  -1.73034
H     3.28914  -2.55364  -0.36224
H     2.43680  -2.76760  -1.91922
H    -2.15281   0.99269  -2.76632
H    -2.40705  -0.70583  -3.28546
H    -0.75274  -0.07246  -3.09134
H    -2.53693  -2.67598   1.60615
H    -1.90850  -3.01853  -0.03698
H    -3.16947  -1.77022   0.19468
