26
Generated by autodE on: 2022-06-20. E = -689.460863 Ha
C     2.66805   1.84091   0.24289
O     1.91966   0.91684   1.03992
C     0.78585   0.41571   0.46720
C     0.67444  -0.87481   0.04277
O     1.58868  -1.84455   0.04395
C     2.94530  -1.62766   0.44603
C    -0.63795  -1.37242  -0.50264
O    -0.72248  -2.53824  -0.86330
C    -1.78937  -0.43954  -0.60428
C    -3.06734  -0.97322  -1.17381
C    -1.66350   0.84564  -0.19017
C    -2.79481   1.82069  -0.27588
C    -0.37706   1.32663   0.39849
O    -0.27683   2.47092   0.83787
H     3.53742   2.13985   0.84338
H     2.07218   2.73146  -0.00556
H     3.01468   1.35939  -0.68667
H     3.44675  -2.59295   0.30108
H     3.00298  -1.33225   1.50146
H     3.42565  -0.86656  -0.18535
H    -3.35758  -0.40907  -2.07554
H    -2.97212  -2.03314  -1.43744
H    -3.89301  -0.85998  -0.45220
H    -3.15333   1.91053  -1.31442
H    -3.65373   1.47363   0.32269
H    -2.49294   2.81126   0.08371
