37
Generated by autodE on: 2022-06-20. E = -1046.090973 Ha. Imaginary frequency = -387.5 cm-1
C    -0.21006   2.74876  -2.23624
O    -0.73471   2.18209  -1.02882
C    -0.10007   1.03434  -0.61309
C     1.26264   1.24019  -0.00162
O     1.60635   2.37786   0.29907
C     2.13696   0.06607   0.22501
C     3.39852   0.27792   1.00532
C     1.82201  -1.13244  -0.33241
C     2.73129  -2.31400  -0.21351
C     0.55650  -1.32517  -1.11219
O     0.32160  -2.39405  -1.68682
C    -0.37988  -0.20162  -1.22248
O    -1.42887  -0.46220  -2.01849
C    -2.61336   0.34407  -2.02682
C    -1.23675  -1.46163   1.10933
C    -2.38204  -2.08041   0.37095
C    -0.25481  -2.31702   1.68780
N     0.54067  -3.04869   2.12250
N    -1.28968  -0.21761   1.57949
C    -1.01460   0.93407   1.27649
C    -1.22752   2.18611   1.87207
N    -1.33927   3.27325   2.27504
H    -0.83282   3.62355  -2.46369
H     0.83477   3.06743  -2.10219
H    -0.27085   2.02763  -3.06737
H     3.44636  -0.41697   1.85954
H     4.28750   0.07794   0.38433
H     3.46162   1.30610   1.38150
H     3.67615  -2.12487  -0.75168
H     2.99604  -2.50032   0.83810
H     2.26621  -3.21414  -0.63088
H    -2.90117   0.64980  -1.01215
H    -3.39734  -0.29406  -2.45452
H    -2.48236   1.23317  -2.65826
H    -2.82261  -2.90172   0.95789
H    -2.00653  -2.50107  -0.57792
H    -3.15195  -1.33118   0.15631
