33
Generated by autodE on: 2022-05-26. E = -1142.580793 Ha. Imaginary frequency = -392.2 cm-1
C     4.12285   1.05841  -2.05875
N     3.28082   0.33330  -1.12157
C     1.95264   0.47040  -1.14448
O     1.33813   1.21490  -1.91262
C     1.23370  -0.38010  -0.16140
N     1.40178  -1.14394   0.75361
N     0.76318  -1.50859   1.80439
C     0.87693  -2.73894   2.28018
N     0.87641  -3.78443   2.80519
C    -1.22505  -0.41073   1.47430
F    -1.92427  -1.49257   1.68810
F    -1.10914   0.28336   2.57943
C    -0.99849   0.15521   0.22858
C    -1.60787  -0.52310  -0.98330
O    -2.44943  -1.41998  -0.88205
N    -1.18035  -0.07042  -2.17663
C    -1.67239  -0.65231  -3.40970
C    -0.62553   1.62580   0.25655
O     0.32532   2.03295   0.93276
N    -1.40448   2.44758  -0.46308
C    -1.06394   3.84965  -0.62388
H     5.15072   0.69211  -1.95852
H     3.77636   0.89602  -3.08968
H     4.10132   2.13973  -1.85184
H     3.71026  -0.26282  -0.41878
H    -0.36387   0.54658  -2.21090
H    -1.38175  -1.71210  -3.50516
H    -2.77048  -0.59871  -3.45824
H    -1.25236  -0.09317  -4.25509
H    -2.15007   2.05899  -1.03040
H    -1.05047   4.36804   0.34649
H    -0.07014   3.95979  -1.08704
H    -1.81389   4.32240  -1.26908
