50
Generated by autodE on: 2022-06-11. E = -6131.234181 Ha
C    -4.56357  -0.34390   0.22775
O    -3.34665  -0.66812   0.91060
C    -2.41955  -1.32298   0.21145
O    -2.59972  -1.73363  -0.91831
C    -1.14167  -1.54137   1.02783
N    -0.64714  -2.90788   0.91382
C     0.53995  -2.94809   0.03280
C     1.64506  -3.78015   0.70441
C     0.21751  -3.54719  -1.34681
C     0.94075  -1.48016  -0.07696
C     0.02332  -0.68642   0.52470
C     0.03199   0.79808   0.71426
Br   -0.54812   1.23699   2.59347
Br   -1.38116   1.61849  -0.50300
C     1.29498   1.60256   0.43382
C     2.51274   1.36879   1.33468
C     2.97987  -0.07014   1.53734
C     3.36999  -0.84030   0.27603
C     2.25100  -1.15850  -0.76201
C     2.10997  -0.23221  -1.97466
C     3.18926   0.52078  -2.46442
C     3.05903   1.30605  -3.61374
C     1.84635   1.35030  -4.30714
C     0.76863   0.59395  -3.83942
C     0.90105  -0.18802  -2.69000
H    -4.35292   0.29141  -0.64513
H    -5.18254   0.20020   0.95047
H    -5.07754  -1.25817  -0.10241
H    -1.39159  -1.28253   2.06656
H    -1.36993  -3.53388   0.56702
H     1.91824  -3.35140   1.67982
H     1.27290  -4.80318   0.87028
H     2.54830  -3.84970   0.08004
H    -0.60504  -3.00266  -1.82784
H     1.09505  -3.52601  -2.01034
H    -0.08471  -4.60024  -1.22669
H     1.02196   2.66430   0.50116
H     1.55376   1.42854  -0.61618
H     3.33403   1.95647   0.89036
H     2.31213   1.81399   2.32167
H     2.21647  -0.63397   2.09651
H     3.86583  -0.04386   2.19336
H     3.78233  -1.80688   0.59964
H     4.19658  -0.32091  -0.22872
H     2.57501  -2.10588  -1.21966
H     4.14834   0.50969  -1.94595
H     3.91407   1.88834  -3.96621
H     1.74318   1.96760  -5.20272
H    -0.18848   0.61669  -4.36620
H     0.03997  -0.75395  -2.33461
