30
Generated by autodE on: 2022-06-11. E = -5690.478928 Ha
Br   -0.60217  -3.14383  -0.78498
C    -0.90629  -1.20296  -0.43231
Br   -1.23431  -0.31901  -2.20468
C     0.22842  -0.58895   0.19301
C     0.77247   0.17516   0.96407
C     0.94550   1.16956   2.01471
C     2.00272   2.22583   1.75312
C     2.30161   2.65113   0.45104
C     3.23357   3.66969   0.23310
C     3.87551   4.27869   1.31626
C     3.58053   3.86133   2.61818
C     2.64978   2.84113   2.83380
C    -0.46827   1.81061   2.20102
C    -1.65238   0.82783   2.31493
C    -2.38101   0.39049   1.01186
C    -2.13975  -1.03428   0.47122
H     1.20240   0.64060   2.94824
H     1.80244   2.17777  -0.39825
H     3.45988   3.98792  -0.78753
H     4.60533   5.07385   1.14635
H     4.07987   4.32939   3.47005
H     2.42276   2.51434   3.85212
H    -0.63994   2.50154   1.35934
H    -0.41235   2.42825   3.11105
H    -1.34317  -0.06176   2.89033
H    -2.40518   1.33187   2.94056
H    -2.19920   1.12587   0.21084
H    -3.46221   0.43943   1.21180
H    -3.01810  -1.38214  -0.09166
H    -2.00431  -1.72660   1.31763
