20
Generated by autodE on: 2022-06-11. E = -440.660178 Ha
C     3.63115   0.59305   0.11629
O     2.27539   1.02302   0.06382
C     1.32452   0.03117   0.04743
O     1.65077  -1.17013   0.07896
C     0.01012   0.53266  -0.00699
N    -1.00073  -0.40493  -0.02794
C    -2.29840  -0.24998  -0.07732
C    -3.18524  -1.44666  -0.08960
C    -2.85824   1.12816  -0.12064
H     4.24343   1.50442   0.11978
H     3.83585   0.01048   1.02875
H     3.89441  -0.02226  -0.75885
H    -0.23229   1.58982  -0.03326
H    -0.64409  -1.36658   0.00028
H    -3.81541  -1.44923  -0.99603
H    -3.87538  -1.42310   0.77177
H    -2.61047  -2.38362  -0.05630
H    -2.48247   1.67663  -1.00349
H    -2.54410   1.70746   0.76661
H    -3.95464   1.10663  -0.15838
