50
Generated by autodE on: 2022-06-11. E = -6131.143256 Ha. Imaginary frequency = -184.6 cm-1
C    -4.71967  -0.36469   0.92872
O    -3.46050  -1.00880   1.09353
C    -2.78135  -1.30633  -0.03743
O    -3.26028  -1.12722  -1.16115
C    -1.48138  -1.85309   0.22667
N    -0.83442  -2.37826  -0.84684
C     0.42398  -2.79238  -0.91241
C     1.11747  -3.27326   0.32316
C     0.94426  -3.23934  -2.24057
C     1.15165  -0.46225  -0.46856
C     0.26492  -0.01535   0.27215
C    -0.09426   1.03516   1.19486
Br   -0.42374   0.26853   3.02134
Br   -1.80148   1.93382   0.60376
C     0.96120   2.14626   1.28786
C     2.34622   1.79165   1.85027
C     3.18682   0.68193   1.19355
C     3.30001   0.72557  -0.34384
C     2.50490  -0.41300  -1.04727
C     2.51536  -0.25168  -2.55743
C     3.63384  -0.67503  -3.29097
C     3.68313  -0.50949  -4.67727
C     2.60971   0.08248  -5.35220
C     1.49138   0.50796  -4.62915
C     1.44595   0.34260  -3.24112
H    -4.61340   0.57541   0.36666
H    -5.08959  -0.15032   1.93924
H    -5.43435  -1.01598   0.40166
H    -1.18654  -2.13255   1.23184
H    -1.29269  -2.16636  -1.73758
H     0.88325  -2.66943   1.20871
H     0.81599  -4.31777   0.53031
H     2.20586  -3.26976   0.17329
H     0.38130  -2.78806  -3.07043
H     2.00456  -2.97149  -2.34951
H     0.88126  -4.33981  -2.32854
H     0.54715   2.96213   1.89831
H     1.06093   2.53724   0.26313
H     2.91765   2.73438   1.79945
H     2.24421   1.55920   2.92238
H     2.80225  -0.30323   1.50186
H     4.19480   0.75300   1.63281
H     4.35135   0.63781  -0.65923
H     2.93894   1.69071  -0.73427
H     3.01872  -1.36072  -0.81323
H     4.46968  -1.14755  -2.76797
H     4.55990  -0.84937  -5.23410
H     2.64417   0.20823  -6.43703
H     0.64678   0.96877  -5.14751
H     0.56663   0.66963  -2.68160
