15
Generated by autodE on: 2022-06-17. E = -495.114605 Ha
C     2.31159  -0.23522   0.50143
C     1.21866   0.33267  -0.33313
O     1.34253   0.94933  -1.36910
C    -0.20329   0.06837   0.14098
O    -0.72426   0.82418   1.00862
O     0.02250   1.82135   1.52263
C    -1.03299  -1.03668  -0.43543
C    -2.44789  -1.17135   0.02185
O    -0.48105  -1.76188  -1.24525
H     3.28866   0.11308   0.14078
H     2.25123  -1.33576   0.43723
H     2.15338   0.04439   1.55490
H    -2.91352  -2.02775  -0.48102
H    -3.00291  -0.24662  -0.20508
H    -2.47812  -1.30771   1.11487
