15
Generated by autodE on: 2022-07-27. E = -495.111825 Ha
C     0.49260  -1.35881  -1.88394
C     0.89194  -0.70188  -0.60798
O     1.91839  -0.89324   0.01021
C    -0.11910   0.24761   0.01192
O    -0.22723   1.41185  -0.46854
O     0.55138   1.74647  -1.51568
C    -0.99204  -0.05145   1.21071
C    -0.78859  -1.38518   1.84900
O    -1.78992   0.78905   1.57458
H    -0.25043  -2.13915  -1.64023
H     1.36740  -1.82187  -2.36040
H     0.01080  -0.63241  -2.55442
H     0.25537  -1.47327   2.19159
H    -0.94875  -2.18320   1.10427
H    -1.47997  -1.50561   2.69168
