38
Generated by autodE on: 2022-06-17. E = -846.639220 Ha. Imaginary frequency = -119.5 cm-1
C    -0.72485   4.01408  -1.15914
C    -0.47453   2.97281  -0.33701
C    -1.05553   2.89544   1.04970
C     0.41047   1.90363  -0.79751
O    -1.28966   0.65511  -1.83103
O    -1.86745   0.14660  -0.74189
C    -1.21096  -0.77961  -0.08285
C    -0.26397  -1.71133  -0.72829
C    -0.22748  -1.84691  -2.22458
O     0.47280  -2.39830  -0.02452
C    -1.75876  -0.94408   1.30377
C    -1.24488  -2.03727   2.19297
O    -2.62583  -0.16633   1.68430
C     0.98966   0.95211   0.03196
C     2.09534   0.14590  -0.39395
C     2.80422  -0.72488   0.38016
C     3.90854  -1.54384  -0.21509
C     2.57440  -0.93113   1.84666
H    -1.35361   4.85057  -0.84220
H    -0.30525   4.05201  -2.16871
H    -1.68727   3.77002   1.25906
H    -0.26269   2.85260   1.81459
H    -1.66737   1.98846   1.17136
H     0.81919   2.01415  -1.80528
H     0.52978  -1.15563  -2.62716
H     0.08379  -2.87588  -2.45447
H    -1.18510  -1.60821  -2.70415
H    -0.18992  -1.85402   2.44234
H    -1.84874  -2.04458   3.10967
H    -1.28975  -3.01529   1.69338
H     0.69079   0.92184   1.08089
H     2.37117   0.22701  -1.45090
H     3.66237  -2.61776  -0.13701
H     4.08277  -1.30279  -1.27341
H     4.85018  -1.40151   0.34370
H     1.69308  -0.40644   2.23494
H     3.45798  -0.58604   2.41277
H     2.46688  -2.00561   2.06646
