12
Generated by autodE on: 2022-06-22. E = -157.300302 Ha
C     1.96123  -0.05725   0.09016
C     0.54162   0.37708  -0.11460
C    -0.54162  -0.37711   0.11451
C    -1.96123   0.05727  -0.09010
H     2.54024   0.01108  -0.84798
H     2.02238  -1.09442   0.45567
H     2.47809   0.59400   0.81742
H     0.39657   1.40259  -0.48236
H    -0.39656  -1.40262   0.48227
H    -2.02236   1.09428  -0.45609
H    -2.47835  -0.59428  -0.81689
H    -2.54001  -0.01051   0.84823
