31
Generated by autodE on: 2022-06-22. E = -913.371327 Ha
C     3.92497  -2.15417   1.47847
N     3.37967  -1.33553   0.41383
C     2.12471  -0.83985   0.47829
O     1.33650  -1.13952   1.39657
C     1.72841   0.10605  -0.55962
C     2.63506   0.81160  -1.36386
N     3.41545   1.35944  -2.04429
O     0.48515   0.64982  -0.54844
C    -0.63882   0.20103  -0.08674
C    -0.84232  -1.25711   0.21560
O    -1.55094  -1.66999   1.10703
O    -0.26201  -2.01084  -0.71261
C    -0.31740  -3.43334  -0.51603
C    -1.71637   1.16031  -0.00772
C    -3.05582   0.75455   0.20600
C    -4.07261   1.70339   0.25707
C    -3.78192   3.06282   0.09775
C    -2.45943   3.47602  -0.11396
C    -1.43426   2.54002  -0.16344
H     4.14799  -1.56517   2.38443
H     4.85334  -2.62064   1.12659
H     3.21259  -2.94493   1.75422
H     4.00944  -0.99647  -0.30681
H     0.25267  -3.87226  -1.34212
H    -1.35915  -3.78245  -0.53982
H     0.14140  -3.69302   0.44830
H    -3.29705  -0.30043   0.32299
H    -5.10273   1.37931   0.41819
H    -4.58470   3.80218   0.14183
H    -2.22948   4.53702  -0.23135
H    -0.40357   2.86365  -0.31050
