31
Generated by autodE on: 2022-07-27. E = -913.373096 Ha
C     4.60481  -0.68333   1.14595
N     3.22126  -0.45599   0.78127
C     2.88606   0.43468  -0.17332
O     3.71445   1.13102  -0.78120
C     1.45149   0.56577  -0.47690
C     1.02416   1.41349  -1.51268
N     0.70069   2.11272  -2.39138
O     0.63796  -0.22743   0.20673
C    -0.63260  -0.46210   0.30068
C    -0.94052  -1.64504   1.14376
O    -2.07620  -1.99784   1.40247
O     0.15619  -2.26931   1.57642
C    -0.04883  -3.41458   2.41845
C    -1.67806   0.36232  -0.28724
C    -1.61737   1.76923  -0.18896
C    -2.65036   2.55063  -0.70151
C    -3.74489   1.94630  -1.32813
C    -3.81408   0.55152  -1.42733
C    -2.79649  -0.24014  -0.90206
H     4.63721  -1.38963   1.98433
H     5.18349  -1.10405   0.30708
H     5.09231   0.25453   1.45435
H     2.49273  -1.01795   1.20985
H     0.95169  -3.78132   2.67307
H    -0.61421  -4.18771   1.87869
H    -0.59503  -3.12784   3.32856
H    -0.78028   2.24798   0.32087
H    -2.60082   3.63748  -0.60938
H    -4.54845   2.56306  -1.73686
H    -4.66753   0.07896  -1.91801
H    -2.84999  -1.32582  -0.97976
