43
Generated by autodE on: 2022-06-22. E = -1070.677710 Ha. Imaginary frequency = -283.3 cm-1
C     4.38088  -0.24924   1.78559
N     3.04124   0.08701   1.34897
C     2.80444   0.56597   0.11167
O     3.69151   0.91019  -0.68312
C     1.38447   0.64281  -0.29114
C     1.04947   1.46367  -1.39551
N     0.79771   2.10455  -2.33715
O     0.50169   0.25240   0.62924
C    -0.76000  -0.15020   0.49711
C    -1.08710  -1.25603   1.43243
O    -2.17525  -1.80165   1.49091
O    -0.04049  -1.62889   2.17760
C    -0.24305  -2.74710   3.05276
C    -1.79585   0.74372  -0.01361
C    -1.56695   2.13707  -0.03885
C    -2.56160   3.01284  -0.46802
C    -3.80563   2.52266  -0.87851
C    -4.05064   1.14605  -0.84267
C    -3.06157   0.26183  -0.41565
C    -0.22156  -1.57100  -1.54359
C    -1.00730  -0.99875  -2.68043
C     1.15238  -1.48901  -1.48338
C     1.97492  -2.36714  -0.58944
H     4.39078  -0.34469   2.87883
H     4.73026  -1.19968   1.34552
H     5.08304   0.54246   1.49142
H     2.25087  -0.28390   1.86832
H    -1.03871  -2.52884   3.77937
H    -0.51085  -3.64216   2.47312
H     0.71157  -2.89987   3.56867
H    -0.62034   2.54189   0.31929
H    -2.36555   4.08732  -0.47173
H    -4.58280   3.21092  -1.21812
H    -5.02059   0.75408  -1.15674
H    -1.95285  -0.54158  -2.35432
H    -0.71937  -2.32565  -0.92681
H    -1.28260  -1.80778  -3.38103
H    -3.26109  -0.80709  -0.39432
H    -0.43043  -0.24682  -3.23633
H     1.67254  -0.98614  -2.30418
H     2.03640  -3.37857  -1.03023
H     3.00640  -2.00484  -0.48233
H     1.52079  -2.47141   0.40661
