65
Generated by autodE on: 2022-06-29. E = -1367.902967 Ha
C    -0.13048  -3.47301  -0.33552
C     0.38705  -2.47632  -1.06761
C     1.11072  -2.75273  -2.35903
C     0.25388  -1.01697  -0.68527
C    -0.83670  -0.68451   0.34354
C    -2.21971  -0.84640  -0.21085
C    -3.24529  -1.53659   0.31846
C    -3.19477  -2.29335   1.61779
C    -4.57504  -1.59335  -0.38623
C    -0.47528   0.76762   0.82653
C    -0.61497   0.81806   2.37066
O    -1.01536  -0.08302   3.07981
O    -0.26000   2.00592   2.86092
C    -0.33198   2.17214   4.28359
C    -1.40149   1.83074   0.22256
C    -2.64759   2.10870   0.80361
C    -3.52538   3.01612   0.20726
C    -3.16969   3.65814  -0.98412
C    -1.93041   3.38441  -1.56944
C    -1.05229   2.47635  -0.96852
N     0.90017   0.94769   0.37857
C     1.71726   2.04254   0.84595
C     1.51235  -0.28203  -0.10004
C     2.07986  -1.13068   1.07232
C     2.86589  -2.38970   0.80258
O     1.85053  -0.78799   2.22020
C     2.59883   0.05589  -1.12651
C     2.25421   0.46763  -2.42344
C     3.23368   0.85796  -3.33835
C     4.58352   0.85477  -2.97182
C     4.93876   0.47364  -1.67645
C     3.95339   0.08640  -0.76288
H    -0.02066  -4.51314  -0.65659
H    -0.66717  -3.30221   0.59881
H     1.12444  -3.82792  -2.58904
H     0.62974  -2.21919  -3.19624
H     2.15132  -2.39283  -2.32438
H     0.00826  -0.46825  -1.60583
H    -0.70672  -1.33190   1.21473
H    -2.39175  -0.33613  -1.16504
H    -3.42283  -3.36013   1.44762
H    -2.22821  -2.22163   2.12912
H    -3.97074  -1.91767   2.30766
H    -4.56642  -1.03158  -1.33204
H    -4.86170  -2.63777  -0.60299
H    -5.37442  -1.18087   0.25482
H     0.31804   1.44285   4.78782
H     0.01254   3.19271   4.48630
H    -1.36669   2.04282   4.63232
H    -2.94656   1.60193   1.72429
H    -4.49221   3.22082   0.67352
H    -3.85530   4.36899  -1.45157
H    -1.64246   3.88088  -2.49953
H    -0.08454   2.25777  -1.42155
H     2.19190   1.86809   1.82981
H     2.51534   2.24690   0.11711
H     1.10536   2.95091   0.92488
H     3.05057  -2.57869  -0.25941
H     2.30739  -3.23578   1.23002
H     3.82626  -2.32188   1.33724
H     1.20914   0.49024  -2.73235
H     2.93900   1.16721  -4.34400
H     5.35069   1.15708  -3.68847
H     5.98642   0.48455  -1.36696
H     4.25820  -0.17435   0.25196
