23
Generated by autodE on: 2022-06-29. E = -351.521381 Ha
C     3.54905   0.23445   1.28436
C     2.53737  -0.15400   0.47718
C     2.78071  -1.05900  -0.70349
C     1.17524   0.30541   0.74139
C     0.07755  -0.01078   0.00924
C    -1.25283   0.47371   0.31622
C    -2.39688   0.20813  -0.36375
C    -2.47598  -0.65925  -1.58790
C    -3.70873   0.78946   0.08229
H     3.36935   0.89178   2.14069
H     4.57738  -0.09411   1.10981
H     2.19312  -1.98835  -0.61984
H     2.47147  -0.57547  -1.64509
H     3.84308  -1.32832  -0.78652
H     1.05168   0.96176   1.61128
H     0.19256  -0.66485  -0.85935
H    -1.32778   1.12467   1.19575
H    -3.17220  -1.49922  -1.41654
H    -1.50902  -1.07480  -1.89916
H    -2.89230  -0.08600  -2.43511
H    -3.60288   1.41467   0.98098
H    -4.15776   1.40298  -0.71948
H    -4.43872  -0.01153   0.29759
