42
Generated by autodE on: 2022-06-29. E = -1016.339009 Ha
C    -2.98991  -2.99650  -0.47906
O    -2.57405  -1.66355  -0.15852
C    -1.34479  -1.31478  -0.54606
O    -0.61529  -2.05433  -1.18208
C    -1.03664   0.10428  -0.21648
C    -2.12570   1.08938  -0.16950
C    -3.16774   1.06398  -1.11886
C    -4.20231   1.99623  -1.06030
C    -4.22270   2.96629  -0.05150
C    -3.19919   2.99600   0.90136
C    -2.16080   2.06678   0.84565
N     0.24539   0.46026  -0.06093
C     0.66645   1.84615  -0.36359
C     1.21877  -0.39043   0.43663
C     0.85868  -1.38385   1.40500
C     1.97650  -2.09187   2.14715
O    -0.32613  -1.66730   1.69558
C     2.62905  -0.13975   0.04236
C     3.57270   0.39940   0.93213
C     4.89274   0.61232   0.52717
C     5.28747   0.29965  -0.77767
C     4.35525  -0.23141  -1.67553
C     3.03832  -0.45313  -1.26714
H    -4.00803  -3.09795  -0.08590
H    -2.98539  -3.15430  -1.56725
H    -2.32204  -3.72730  -0.00043
H    -3.15609   0.31728  -1.91490
H    -4.99699   1.96832  -1.80940
H    -5.03636   3.69381  -0.00630
H    -3.21386   3.74210   1.69925
H    -1.37690   2.08303   1.60493
H     0.96913   2.36077   0.55686
H     1.52338   1.80298  -1.04489
H    -0.14917   2.38313  -0.85250
H     2.43698  -1.43147   2.89857
H     1.55436  -2.96597   2.66075
H     2.77460  -2.41587   1.46381
H     3.26421   0.66037   1.94659
H     5.61475   1.03237   1.23166
H     6.31923   0.46973  -1.09446
H     4.65692  -0.48101  -2.69572
H     2.30939  -0.87991  -1.96041
