65
Generated by autodE on: 2022-06-29. E = -1367.830898 Ha. Imaginary frequency = -225.3 cm-1
C     0.42306  -3.52371   1.34633
C     0.72188  -3.11848   0.09048
C     1.58317  -3.96607  -0.81732
C     0.22075  -1.88855  -0.51088
C    -0.97417  -1.23693  -0.13603
C    -1.80317  -0.72365  -1.21890
C    -3.14053  -0.51764  -1.19126
C    -4.00268  -0.73440   0.01894
C    -3.87139  -0.03365  -2.41028
C    -0.40373   0.61891   1.00091
C    -0.30178   0.08731   2.42163
O    -0.93881  -0.83710   2.88801
O     0.35360   0.97893   3.18572
C     0.47177   0.65846   4.57555
C    -1.58294   1.51431   0.87528
C    -2.42587   1.78570   1.97737
C    -3.55908   2.58576   1.84597
C    -3.89341   3.14257   0.60722
C    -3.07797   2.88499  -0.49731
C    -1.95127   2.07295  -0.36936
N     0.77013   0.96849   0.33385
C     0.94192   2.35544  -0.16088
C     1.81158   0.09687   0.05672
C     2.30123  -0.86260   1.01872
C     3.49432  -1.73079   0.68342
O     1.80162  -0.99798   2.15156
C     2.61337   0.43184  -1.15321
C     1.98986   0.47750  -2.41481
C     2.71593   0.80268  -3.56083
C     4.08088   1.09659  -3.46882
C     4.70978   1.07042  -2.22054
C     3.98166   0.74576  -1.07363
H     0.82179  -4.46474   1.73539
H    -0.21416  -2.93645   2.00819
H     2.06973  -4.78669  -0.27054
H     0.96973  -4.40716  -1.62234
H     2.36049  -3.36462  -1.31179
H     0.56603  -1.70836  -1.53088
H    -1.49031  -1.62234   0.74100
H    -1.27827  -0.51563  -2.15821
H    -4.75368  -1.52108  -0.17583
H    -3.43732  -1.00940   0.91797
H    -4.56905   0.18546   0.24325
H    -3.19576   0.12409  -3.26401
H    -4.65521  -0.75087  -2.71322
H    -4.39029   0.91789  -2.19645
H     1.01366  -0.29000   4.70262
H     1.03805   1.47983   5.03061
H    -0.51980   0.57803   5.04488
H    -2.20507   1.37457   2.96155
H    -4.18394   2.77722   2.72129
H    -4.78045   3.77198   0.50536
H    -3.32398   3.30867  -1.47334
H    -1.35048   1.87785  -1.25264
H     1.99728   2.62813  -0.05024
H     0.65948   2.48760  -1.21100
H     0.34444   3.02712   0.46272
H     3.70389  -1.82786  -0.38630
H     3.32000  -2.72277   1.12369
H     4.38502  -1.30585   1.17453
H     0.92441   0.25489  -2.49422
H     2.21438   0.82415  -4.53123
H     4.65027   1.34993  -4.36618
H     5.77207   1.31167  -2.13636
H     4.47722   0.75072  -0.10159
