84
Generated by autodE on: 2022-07-04. E = -1920.569915 Ha
C     2.82346  20.76008 -11.34704
N     2.97017  21.49740 -10.10705
C     3.73416  22.59773 -10.04547
O     4.49188  22.91346 -10.97372
C     3.79585  23.32465  -8.67540
C     2.60820  23.04915  -7.74713
O     4.95619  22.72467  -8.08136
C     5.99244  23.66205  -7.83653
C     6.46411  23.41262  -6.37129
C     5.53587  22.63083  -5.48609
O     7.55491  23.77609  -5.98457
C     7.17408  23.20417  -8.77964
O     8.12505  22.54880  -8.34587
N     7.00159  23.47411 -10.07496
C     7.87812  22.93587 -11.09232
C     5.34125  25.04483  -8.15286
C     4.12489  24.82560  -8.73880
C     3.03191  25.81570  -9.24692
C     1.84332  25.14173 -10.02110
C     0.50914  25.84884 -10.05161
O     1.96974  24.11227 -10.65574
C     3.51450  26.70410 -10.42637
C     3.12048  28.04278 -10.57965
C     3.53388  28.78724 -11.68706
C     4.32795  28.20192 -12.67727
C     4.69168  26.85822 -12.55412
C     4.28374  26.11647 -11.44394
C     2.37096  26.57359  -8.05425
C     3.22957  27.13286  -6.93248
C     4.30403  28.14950  -7.30095
C     5.42335  27.66640  -8.22373
C     6.15407  26.34021  -7.85701
C     7.43362  26.26357  -8.73487
C     8.63474  25.72441  -8.25346
C     9.75906  25.61333  -9.07632
C     9.70844  26.04082 -10.40467
C     8.51904  26.58570 -10.89673
C     7.40030  26.69760 -10.06936
C     6.51093  26.53583  -6.36421
C     5.77987  25.96898  -5.31465
C     6.05420  26.27484  -3.97913
C     7.06867  27.17850  -3.65903
C     7.79627  27.77340  -4.69459
C     7.51495  27.45890  -6.02545
H     2.30465  21.36246 -12.11216
H     2.24122  19.85018 -11.15612
H     3.80759  20.47634 -11.74636
H     2.29291  21.33097  -9.37249
H     2.72170  23.63899  -6.82799
H     1.64390  23.30018  -8.20633
H     2.59646  21.98678  -7.46290
H     5.90354  22.67757  -4.45324
H     4.50350  22.99871  -5.55165
H     5.52169  21.58322  -5.82736
H     6.07231  23.76278 -10.38292
H     8.92328  22.99907 -10.76212
H     7.76255  23.52275 -12.01322
H     7.64873  21.87893 -11.31738
H    -0.08362  25.41933 -10.86889
H    -0.01843  25.67048  -9.10174
H     0.59972  26.93377 -10.18255
H     2.51119  28.53139  -9.82065
H     3.23172  29.83365 -11.77223
H     4.65155  28.78604 -13.54186
H     5.30219  26.38055 -13.32401
H     4.55935  25.06491 -11.36794
H     1.74433  27.37871  -8.45333
H     1.67413  25.86202  -7.58866
H     2.53545  27.61050  -6.22072
H     3.67476  26.30039  -6.38074
H     4.74653  28.52650  -6.36564
H     3.83231  29.02153  -7.78534
H     6.20083  28.44405  -8.23729
H     5.06371  27.60254  -9.24707
H     8.68552  25.35148  -7.23341
H    10.67679  25.17758  -8.67386
H    10.58494  25.94875 -11.05048
H     8.45478  26.92467 -11.93375
H     6.48826  27.11220 -10.48999
H     4.98153  25.26063  -5.52242
H     5.46808  25.79913  -3.18925
H     7.28850  27.42037  -2.61655
H     8.58884  28.49071  -4.46768
H     8.08962  27.94627  -6.81380
