55
Generated by autodE on: 2022-07-04. E = -1158.343662 Ha
C     0.98348   5.53826  -6.99708
C     0.63510   5.42240  -8.45349
O     0.76563   6.34813  -9.23154
C     0.11332   4.04318  -8.94255
C     1.34938   3.14741  -9.09240
C     1.45535   1.93005  -8.40738
C     2.57898   1.11533  -8.57656
C     3.61369   1.51191  -9.42830
C     3.51812   2.73012 -10.10908
C     2.39489   3.54334  -9.94123
C    -0.88191   3.53243  -8.00003
C    -1.97701   3.26491  -7.55628
C    -3.43343   3.12496  -7.47222
C    -3.93622   3.48889  -6.06601
C    -5.06160   4.29448  -5.85062
C    -5.50628   4.56218  -4.55017
C    -4.83275   4.03006  -3.44888
C    -3.70680   3.22458  -3.65539
C    -3.26597   2.95837  -4.95221
C    -3.88284   1.68699  -7.80544
C    -2.98609   0.70295  -8.23905
C    -3.43654  -0.58350  -8.55908
C    -4.79138  -0.90273  -8.45239
C    -5.69508   0.07544  -8.02077
C    -5.24346   1.35604  -7.69908
C    -3.95363   4.10638  -8.57876
C    -3.27865   3.98308  -9.96095
C    -2.02466   4.85754 -10.25122
C    -0.64123   4.17591 -10.30054
H     1.65202   6.39408  -6.83581
H     1.43495   4.61081  -6.61642
H     0.05102   5.70256  -6.43171
H     0.65021   1.61749  -7.73940
H     2.64433   0.16691  -8.03794
H     4.49248   0.87623  -9.55940
H     4.32362   3.05185 -10.77347
H     2.33474   4.49563 -10.47161
H    -5.60713   4.71879  -6.69343
H    -6.38608   5.19316  -4.40210
H    -5.18026   4.24165  -2.43491
H    -3.16944   2.80302  -2.80238
H    -2.38755   2.32706  -5.10792
H    -1.92550   0.94101  -8.33026
H    -2.71959  -1.33695  -8.89443
H    -5.14333  -1.90659  -8.70160
H    -6.75808  -0.16132  -7.93081
H    -5.95784   2.10689  -7.35545
H    -3.83085   5.13506  -8.20539
H    -5.03423   3.93528  -8.68993
H    -3.05565   2.92423 -10.17492
H    -4.04537   4.27104 -10.69668
H    -1.99481   5.71067  -9.55323
H    -2.17042   5.30503 -11.24696
H     0.01485   4.73909 -10.97921
H    -0.74365   3.16281 -10.71948
