84
Generated by autodE on: 2022-07-04. E = -1920.458973 Ha. Imaginary frequency = -207.0 cm-1
C     2.07286  20.88926 -10.62091
N     2.62706  21.39579  -9.37931
C     3.46088  22.44926  -9.37236
O     3.86161  22.97591 -10.41340
C     3.83559  22.92046  -7.98023
C     2.85250  22.82946  -6.85670
O     5.06400  22.89070  -7.55325
C     6.25103  23.15070  -8.12065
C     7.38257  23.07006  -7.21753
C     7.16432  23.01626  -5.72465
O     8.53649  23.02313  -7.67278
C     6.48854  22.75219  -9.55414
O     6.26700  21.58758  -9.91240
N     6.98693  23.69368 -10.36213
C     7.21410  23.46391 -11.77302
C     5.07703  25.64647  -8.25033
C     3.98361  25.26489  -8.68919
C     2.81786  25.89203  -9.41282
C     1.73661  24.87676  -9.90603
C     1.34904  24.85140 -11.35552
O     1.17002  24.16379  -9.09769
C     3.39838  26.66842 -10.61471
C     2.97587  27.95848 -10.96111
C     3.52882  28.62433 -12.06176
C     4.50476  28.00715 -12.84630
C     4.91964  26.71077 -12.52225
C     4.37388  26.05477 -11.41968
C     2.07889  26.79571  -8.36454
C     2.90109  27.47806  -7.26143
C     4.02066  28.48360  -7.57663
C     5.30446  28.04009  -8.29351
C     6.00470  26.71628  -7.80366
C     7.37189  26.58131  -8.50562
C     8.50211  26.10363  -7.83084
C     9.72231  25.94369  -8.49412
C     9.83819  26.26216  -9.84846
C     8.71828  26.74102 -10.53520
C     7.49957  26.89871  -9.87042
C     6.14622  26.76924  -6.27893
C     5.51167  25.84916  -5.43979
C     5.62474  25.94766  -4.04851
C     6.37599  26.97512  -3.47604
C     7.01314  27.90493  -4.30722
C     6.89672  27.80263  -5.69378
H     2.87450  20.67049 -11.34107
H     1.38995  21.62399 -11.07812
H     1.51704  19.96759 -10.41123
H     2.28616  21.01357  -8.50350
H     3.18132  23.47946  -6.03387
H     2.79835  21.79582  -6.46717
H     1.85636  23.13597  -7.18850
H     7.63855  23.89795  -5.26760
H     7.68861  22.12696  -5.34056
H     6.11263  22.97956  -5.42535
H     7.09294  24.63513  -9.99537
H     6.28075  23.17010 -12.27992
H     7.58985  24.39117 -12.22308
H     7.95674  22.66648 -11.93499
H     1.07949  25.86238 -11.69659
H     2.20176  24.52719 -11.96836
H     0.50457  24.16420 -11.49354
H     2.21847  28.47281 -10.37163
H     3.19186  29.63604 -12.30026
H     4.93825  28.52971 -13.70223
H     5.68182  26.20790 -13.12260
H     4.71482  25.05238 -11.16815
H     1.46310  27.52773  -8.90493
H     1.37229  26.13789  -7.84169
H     2.16147  28.02627  -6.65297
H     3.29698  26.70029  -6.59474
H     4.30803  28.92604  -6.60889
H     3.60344  29.31471  -8.17135
H     5.10905  27.93489  -9.36442
H     6.04454  28.84954  -8.19551
H     8.43198  25.83657  -6.77745
H    10.58284  25.55383  -7.94568
H    10.79141  26.13482 -10.36671
H     8.78669  26.99003 -11.59675
H     6.63898  27.25384 -10.43412
H     4.92572  25.04128  -5.87671
H     5.12477  25.21161  -3.41433
H     6.46697  27.05420  -2.39013
H     7.60365  28.71475  -3.87191
H     7.40221  28.53145  -6.33053
