21
Generated by autodE on: 2022-05-28. E = -516.634483 Ha
C     3.36117   0.97809   0.88161
C     3.22966  -0.28781   0.07346
O     4.08769  -1.16966   0.04954
C     2.07115  -0.34291  -0.79196
N     0.95227  -0.81123  -0.73349
C    -0.27401  -1.18784  -0.72036
C    -1.35586  -0.32604  -0.25900
C    -1.12367   0.98248   0.21348
C    -2.18917   1.77607   0.63464
C    -3.49944   1.28186   0.59798
C    -3.73748  -0.01670   0.13404
C    -2.67666  -0.81606  -0.29174
H     3.88892   0.74639   1.81831
H     3.96785   1.70386   0.31401
H     2.38390   1.43658   1.09343
H    -0.49629  -2.20015  -1.07229
H    -0.10405   1.37321   0.25068
H    -1.99744   2.78853   0.99787
H    -4.33084   1.90680   0.93187
H    -4.75685  -0.40867   0.10307
H    -2.86159  -1.82938  -0.65664
