34
Generated by autodE on: 2022-05-28. E = -923.419765 Ha. Imaginary frequency = -338.5 cm-1
C    -1.96799   3.31759  -0.10816
C    -2.03510   2.08577  -0.96774
O    -2.98351   1.80595  -1.70193
C    -0.97023   1.12940  -0.75978
N     0.13750   0.83502  -1.16145
C     1.15299   0.01298  -1.09936
C     2.36881   0.33765  -0.37000
C     2.45202   1.46321   0.47633
C     3.61374   1.70908   1.20529
C     4.71010   0.84240   1.10534
C     4.63645  -0.27508   0.26579
C     3.47816  -0.52603  -0.46902
C    -0.24954  -1.33660   0.66285
C    -0.73576  -2.50006  -0.22199
C    -1.71917  -3.34470   0.62299
C    -2.80875  -2.58119   0.76236
C    -2.47914  -1.28299  -0.00819
O    -1.67822  -1.80830  -1.07904
C    -1.36136  -0.55678   0.77204
F    -1.66969   0.26999   1.79369
H    -2.06993   3.01698   0.94797
H    -2.78460   4.00071  -0.37869
H    -0.99184   3.81626  -0.21634
H     1.16515  -0.80697  -1.82368
H     1.60037   2.14244   0.55768
H     3.66745   2.58434   1.85710
H     5.61935   1.04027   1.67750
H     5.48869  -0.95361   0.18201
H     3.41832  -1.39853  -1.12416
H     0.61562  -1.36137   1.32083
H     0.01813  -3.04146  -0.80402
H    -1.49869  -4.32268   1.05092
H    -3.72156  -2.76357   1.32856
H    -3.31228  -0.67058  -0.36950
