13
Generated by autodE on: 2022-10-06. E = -245.298509 Ha
C    -1.96133  -0.25345  -0.07933
N    -0.74552   0.51681  -0.27728
C     0.47794   0.07012   0.01583
N     1.53928   0.85627  -0.19169
N     0.64738  -1.15536   0.51739
H    -1.94327  -1.18929  -0.66013
H    -2.11679  -0.49731   0.98392
H    -2.80900   0.34971  -0.42323
H    -0.81992   1.45706  -0.65235
H     1.42849   1.76536  -0.62701
H     2.47664   0.51127  -0.01700
H     1.57739  -1.48635   0.75033
H    -0.14394  -1.75129   0.72927
