17
Generated by autodE on: 2022-10-13. E = -509.617429 Ha
C     1.92632   1.05761  -2.30473
O     1.00541   0.27975  -1.52231
C     0.66093   0.76778  -0.31907
O     1.09309   1.82325   0.11751
C    -0.27651  -0.06806   0.42614
C    -0.66353   0.42185   1.69426
N    -0.97214   0.84066   2.73890
N    -0.80303  -1.27201   0.00087
C    -1.74211  -1.94864   0.92760
N    -0.58733  -1.88523  -1.08587
H     1.49958   2.04634  -2.52392
H     2.87763   1.17618  -1.76749
H     2.07881   0.49338  -3.23152
H    -2.07157  -2.86572   0.43310
H    -2.59195  -1.28473   1.12684
H    -1.21822  -2.17634   1.86421
H     0.07644  -1.32595  -1.64031
