30
Generated by autodE on: 2022-10-06. E = -754.834377 Ha. Imaginary frequency = -357.6 cm-1
C    -0.81679   2.72763  -0.06672
N    -0.87070   1.56985  -0.96178
C    -1.28132   0.32403  -0.37021
N    -2.44552   0.40239   0.45047
N    -1.48441  -0.66769  -1.40507
N    -0.23129  -2.03806  -0.98791
N    -0.01782  -1.73754   0.25692
C    -0.66395  -2.59195   1.26290
C     0.09230  -0.30020   0.48091
C    -0.00127   0.04857   1.89143
N    -0.12543   0.34621   3.00400
C     1.36869   0.34537  -0.10119
O     1.96019   1.22992   0.46882
O     1.71862  -0.17945  -1.26305
C     2.86696   0.38839  -1.93019
H    -0.45584   3.58914  -0.64477
H    -0.10466   2.56062   0.75090
H    -1.79425   2.99918   0.36927
H    -1.51172   1.77885  -1.72823
H    -2.69280  -0.49121   0.87698
H    -2.32940   1.08127   1.20178
H    -1.24301  -0.34831  -2.34730
H    -2.40478  -1.11247  -1.38119
H     0.44166  -1.53180  -1.57499
H    -0.64073  -3.61603   0.87689
H    -1.70597  -2.28822   1.44643
H    -0.09386  -2.53988   2.19787
H     2.66963   1.44451  -2.15851
H     3.75351   0.29690  -1.28913
H     2.98909  -0.19254  -2.84998
