52
Generated by autodE on: 2022-12-30. E = -1371.208833 Ha
C    -5.07620   3.55544  -2.47923
N    -4.46106   2.43354  -1.80053
C    -4.86552   2.04270  -0.58512
O    -5.66416   2.67473   0.11014
C    -4.11054   0.81485  -0.01439
O    -3.37556   0.13724  -1.01971
C    -4.03354  -0.80323  -1.86393
C    -3.06901   1.46596   0.96326
C    -1.66680   0.86011   0.94779
C    -1.57297  -0.63567   1.23989
C    -2.38004  -1.07689   2.47040
C    -3.65793  -1.90217   2.16917
C    -3.31400  -3.11963   1.26547
C    -2.09268  -3.92877   1.59797
O    -4.01430  -3.38637   0.30729
C    -4.17366  -2.48137   3.52681
C    -4.38467  -1.51808   4.65691
O    -4.37344  -3.67606   3.63734
C    -4.83061  -1.15692   1.56757
C    -5.06423  -0.12024   0.73138
N    -6.49156   0.02967   0.61699
C    -7.28132   0.03481  -0.53230
C    -8.70384  -0.40756  -0.34374
O    -6.82012   0.43712  -1.58706
O    -7.04108  -0.61748   1.74229
N    -6.13248  -1.68503   1.98710
C    -6.60032  -2.86492   1.51733
N    -7.08608  -3.88622   1.24012
H    -6.11621   3.32706  -2.76800
H    -4.50081   3.78874  -3.38359
H    -5.09064   4.44146  -1.82765
H    -3.82761   1.82145  -2.30335
H    -4.60942  -1.53749  -1.28233
H    -4.70128  -0.31294  -2.58685
H    -3.23580  -1.33162  -2.40386
H    -3.49826   1.45631   1.97361
H    -2.96544   2.52642   0.69486
H    -1.08460   1.41454   1.70362
H    -1.19142   1.06588  -0.02283
H    -1.89603  -1.19453   0.35108
H    -0.51451  -0.89460   1.39469
H    -1.75525  -1.70419   3.12088
H    -2.66419  -0.20843   3.07895
H    -1.21768  -3.44146   1.13717
H    -2.19813  -4.93081   1.16191
H    -1.90875  -3.99379   2.67749
H    -5.07649  -1.95920   5.38619
H    -4.75508  -0.54466   4.30635
H    -3.41522  -1.34494   5.15296
H    -8.73187  -1.48559  -0.12027
H    -9.17814   0.11997   0.49620
H    -9.24812  -0.20797  -1.27456
