11
Generated by autodE on: 2022-12-30. E = -430.799844 Ha
C    -2.43695   0.55526   0.35380
C    -1.15351  -0.18715   0.24127
O    -0.54014  -0.71403   1.15199
N    -0.73043  -0.36450  -1.11025
O     0.50372  -0.66011  -1.35423
N     1.58955  -0.35129  -0.66884
C     1.48106   0.52655   0.32005
N     1.58305   1.35378   1.14382
H    -2.89659   0.35920   1.33044
H    -2.20703   1.63216   0.26952
H    -3.11961   0.29411  -0.46650
