41
Generated by autodE on: 2022-12-30. E = -940.274489 Ha
C     0.63770  -5.20473  -0.63854
N    -0.16299  -4.00488  -0.77964
C     0.35656  -2.78401  -0.61789
O     1.54494  -2.57472  -0.35268
C    -0.62437  -1.60999  -0.84531
O    -1.93459  -2.15668  -0.92629
C    -3.01239  -1.26361  -0.69592
C    -0.45051  -0.60079   0.20305
C    -0.10326   0.44144   0.71266
C     0.40772   1.80407   0.79953
C    -0.76851   2.83545   0.79178
C    -2.05216   2.40869   1.43591
O    -0.60477   3.93348   0.30130
C     1.16411   2.05356   2.13091
C     2.06109   3.25240   2.20124
O     1.00527   1.29252   3.06597
C     1.32301   2.01354  -0.44415
C     0.73370   1.52931  -1.78569
C     0.95657   0.04567  -2.19634
C    -0.26154  -0.89816  -2.19264
H     0.99506  -5.33232   0.39631
H     0.02720  -6.07421  -0.91053
H     1.51807  -5.16700  -1.29797
H    -1.16348  -4.06458  -0.94109
H    -3.04275  -0.93206   0.35615
H    -2.96477  -0.37397  -1.34626
H    -3.93351  -1.81750  -0.92325
H    -2.70324   3.27839   1.59084
H    -1.85249   1.89134   2.38684
H    -2.55681   1.68335   0.77664
H     2.97162   3.05377   1.61225
H     1.57929   4.13646   1.75963
H     2.34292   3.44285   3.24468
H     1.53320   3.08923  -0.51031
H     2.28055   1.50405  -0.25583
H     1.20704   2.15409  -2.55876
H    -0.34031   1.77700  -1.83071
H     1.32857   0.04829  -3.23252
H     1.76456  -0.39761  -1.59521
H    -1.15803  -0.33593  -2.49729
H    -0.12170  -1.69787  -2.93704
