52
Generated by autodE on: 2022-12-30. E = -1371.079430 Ha. Imaginary frequency = -98.8 cm-1
C    -5.60058   3.75900  -1.88667
N    -4.71234   2.66088  -1.56359
C    -4.71312   2.08608  -0.35644
O    -5.34686   2.50775   0.61369
C    -3.75134   0.88452  -0.20353
O    -3.27102   0.42795  -1.45577
C    -4.06703  -0.54075  -2.13722
C    -2.53131   1.40192   0.61996
C    -1.29109   0.49779   0.69717
C    -1.39542  -0.95945   1.18712
C    -2.12798  -1.20624   2.52669
C    -3.47835  -1.98179   2.32498
C    -3.23590  -3.40981   1.78359
C    -2.17896  -4.23649   2.45532
O    -3.86147  -3.81512   0.82362
C    -4.28076  -2.09798   3.65023
C    -4.69062  -0.82516   4.32932
O    -4.54652  -3.19607   4.09843
C    -4.20036  -1.15953   1.35428
C    -4.34351  -0.20884   0.59740
N    -7.05304   0.02405   0.99432
C    -7.60553  -0.10546  -0.31286
C    -8.89863  -0.88262  -0.39679
O    -7.17817   0.58034  -1.21596
O    -7.00035  -0.97374   1.81181
N    -6.59019  -2.20544   1.50622
C    -6.53284  -2.52499   0.20960
N    -6.47790  -2.96613  -0.87203
H    -6.65078   3.42346  -1.91784
H    -5.32836   4.16560  -2.86833
H    -5.51847   4.55711  -1.13455
H    -4.18095   2.19957  -2.29562
H    -4.02419  -1.51680  -1.62841
H    -5.11812  -0.22268  -2.21922
H    -3.63895  -0.64205  -3.14372
H    -2.90903   1.64984   1.62172
H    -2.21666   2.35129   0.15781
H    -0.58203   1.03407   1.35077
H    -0.82011   0.47026  -0.29787
H    -1.85281  -1.57014   0.39292
H    -0.36425  -1.33378   1.27916
H    -1.50373  -1.77831   3.22653
H    -2.36054  -0.25228   3.02004
H    -1.20323  -3.95349   2.02384
H    -2.35695  -5.29898   2.24349
H    -2.13100  -4.05591   3.53633
H    -5.50172  -1.03414   5.03864
H    -4.99167  -0.05427   3.60693
H    -3.82374  -0.43445   4.88867
H    -8.86610  -1.49743  -1.30769
H    -9.10798  -1.51156   0.47675
H    -9.70611  -0.14039  -0.50138
