35
Generated by autodE on: 2022-10-21. E = -1060.160587 Ha
C     3.84744  -1.57488  -0.16934
O     3.01518  -0.42658   0.03935
C     1.67606  -0.65491   0.05687
F     1.35155  -1.44297   1.15837
N     1.13823  -1.31349  -1.12336
O     0.21973  -0.39077  -1.71922
C    -0.36927   0.40047  -0.68137
C    -0.89790   1.71567  -1.30200
C    -0.86965   1.82786  -2.79152
O    -1.31160   2.58390  -0.56169
C    -1.50546  -0.33676   0.01883
C    -2.12495   0.19013   1.16282
C    -3.19319  -0.48529   1.75601
C    -3.66113  -1.68651   1.21376
C    -3.06020  -2.20356   0.06376
C    -1.99307  -1.52871  -0.53543
C     0.88636   0.69047   0.18122
F     1.62915   1.65377  -0.50084
O     0.61431   1.11164   1.43491
C     1.73051   1.35369   2.30734
H     3.62558  -2.04299  -1.13973
H     3.70856  -2.30980   0.63763
H     4.88148  -1.21009  -0.16073
H     0.57916  -2.11478  -0.81410
H    -1.38226   0.96497  -3.24479
H     0.17723   1.79083  -3.13208
H    -1.34105   2.76852  -3.10285
H    -1.77572   1.12966   1.58473
H    -3.66446  -0.06639   2.64819
H    -4.49582  -2.21281   1.68258
H    -3.42475  -3.13419  -0.37706
H    -1.54521  -1.92700  -1.44673
H     2.47300   2.00139   1.82062
H     1.31837   1.86271   3.18684
H     2.19890   0.40817   2.61443
