21
Generated by autodE on: 2022-10-26. E = -553.711161 Ha
C     0.71885   2.26743  -2.46686
C    -0.11971   1.52077  -1.46123
O    -1.31570   1.75731  -1.30265
C     0.53744   0.47949  -0.65412
O     1.80307   0.32907  -0.95443
N     2.71959  -0.44732  -0.42156
C    -0.13978  -0.31898   0.37011
C    -0.98289   0.30847   1.30834
C    -1.65226  -0.44960   2.26841
C    -1.49809  -1.83941   2.30246
C    -0.66964  -2.47238   1.36987
C     0.00988  -1.72105   0.41142
H     1.53970   2.80184  -1.96336
H     1.17806   1.57196  -3.18626
H     0.07937   2.98420  -2.99724
H     2.25308  -0.96541   0.34333
H    -1.10426   1.39140   1.28427
H    -2.29773   0.04794   2.99564
H    -2.02438  -2.42998   3.05582
H    -0.55394  -3.55825   1.38577
H     0.63728  -2.22911  -0.32378
