35
Generated by autodE on: 2022-10-21. E = -1060.041953 Ha. Imaginary frequency = -278.5 cm-1
C     3.85435  -1.08697  -0.36089
O     3.15345   0.08177   0.08806
C     1.87690  -0.01715   0.45301
F     1.58772  -0.98617   1.33845
N     1.11375  -1.28564  -1.39650
O     0.27061  -0.36780  -1.88339
C    -0.71849   0.08847  -1.13565
C    -1.22574   1.36543  -1.70660
C    -0.51865   1.90238  -2.92649
O    -2.15180   1.98075  -1.18895
C    -1.42762  -0.72034  -0.13886
C    -2.32499  -0.11727   0.77276
C    -3.04928  -0.89144   1.67849
C    -2.91150  -2.28186   1.69604
C    -2.03286  -2.89314   0.79543
C    -1.28919  -2.12701  -0.09929
C     1.02788   1.06603   0.42587
F     1.41378   2.11153  -0.34982
O     0.11024   1.36368   1.34610
C     0.60476   1.62188   2.67696
H     4.89817  -0.96471  -0.04481
H     3.81254  -1.14623  -1.45904
H     3.43796  -1.99888   0.08598
H     1.83033  -1.28971  -2.13463
H    -0.53018   1.16850  -3.74639
H     0.53498   2.11091  -2.68846
H    -1.01925   2.82669  -3.24131
H    -2.45123   0.95951   0.76425
H    -3.72945  -0.39914   2.37759
H    -3.47916  -2.88470   2.40881
H    -1.91403  -3.97925   0.79681
H    -0.58739  -2.61595  -0.76997
H    -0.26346   1.93245   3.27154
H     1.04031   0.70829   3.10739
H     1.35381   2.42777   2.65709
