30
Generated by autodE on: 2022-06-02. E = -857.465913 Ha
C     1.22532  -3.74413  -0.94448
N     0.58542  -2.50189  -0.56088
C     1.10368  -1.29160  -0.81126
O     2.16754  -1.09369  -1.40073
C     0.29316  -0.08957  -0.25836
C    -0.00151   0.85346  -1.44415
F    -0.85528   1.83591  -1.10551
F    -0.56965   0.17565  -2.46077
F     1.09875   1.44609  -1.92469
C    -0.96440  -0.44626   0.39607
C    -1.81080  -0.43380   1.26470
C    -2.46498  -0.10768   2.52404
C    -1.76964   1.16413   3.07249
C    -0.22535   1.15134   3.04032
C     0.49270   1.64723   1.75132
C     1.17386   0.61038   0.83360
H     2.16877  -3.51592  -1.45374
H     1.43788  -4.36341  -0.05945
H     0.58236  -4.32080  -1.62715
H    -0.30174  -2.54410  -0.06604
H    -2.34000  -0.94687   3.22931
H    -3.54815   0.05678   2.41139
H    -2.13377   2.03778   2.50632
H    -2.10961   1.30091   4.11169
H     0.14234   0.14582   3.31060
H     0.10337   1.81139   3.85826
H     1.30720   2.31390   2.07492
H    -0.18759   2.28460   1.16602
H     1.59181  -0.19730   1.45431
H     2.02228   1.07294   0.30981
