46
Generated by autodE on: 2022-06-02. E = -1329.713048 Ha. Imaginary frequency = -378.7 cm-1
C     1.75098  -2.26371   3.92778
N     1.33733  -1.36016   2.87141
C     0.44406  -0.38683   3.08817
O    -0.07323  -0.17656   4.18720
C     0.14640   0.54208   1.88073
C    -1.36507   0.85159   1.87795
F    -1.74922   1.43002   0.72191
F    -2.10833  -0.26202   2.01258
F    -1.71932   1.68978   2.86264
C     0.98801   1.83906   2.11361
C     0.77132   3.05746   1.20141
C     0.95342   2.93708  -0.32427
C     2.23599   2.23464  -0.82090
C     1.96511   0.83842  -1.42030
C     1.14444   0.05639  -0.48603
C     0.52505  -0.05045   0.58302
N    -0.55437  -2.04749   0.41510
N    -0.27777  -2.25833  -0.68286
C     0.33569  -1.71963  -1.76684
C     1.54307  -2.36663  -2.15846
N     2.56234  -2.83259  -2.47474
C    -0.49338  -0.98229  -2.74505
C    -0.04901  -0.83345  -4.06912
C    -0.77634  -0.05032  -4.96788
C    -1.95415   0.58070  -4.55982
C    -2.40258   0.42731  -3.24213
C    -1.67913  -0.34492  -2.33550
H     2.54618  -2.91504   3.54568
H     0.91184  -2.89004   4.27101
H     2.13365  -1.70280   4.79407
H     1.68746  -1.49747   1.92801
H     2.03787   1.51591   2.06290
H     0.80728   2.15863   3.15067
H    -0.22631   3.48419   1.39331
H     1.48760   3.81153   1.57075
H     0.93090   3.96588  -0.71797
H     0.07499   2.43772  -0.76213
H     2.72801   2.84138  -1.59721
H     2.96346   2.13871   0.00185
H     1.42722   0.93913  -2.37816
H     2.90579   0.31170  -1.65061
H     0.86973  -1.32445  -4.39535
H    -0.41943   0.06148  -5.99401
H    -2.52341   1.19008  -5.26510
H    -3.32172   0.91834  -2.91503
H    -2.03310  -0.44011  -1.30813
