51
Generated by autodE on: 2022-06-04. E = -1209.279615 Ha. Imaginary frequency = -260.7 cm-1
C     1.75367  -3.00578  -0.04679
C     0.81939  -2.11271   0.73320
O    -0.31543  -2.53007   1.02896
C     1.28213  -0.80008   1.15376
C     2.69736  -0.36595   1.07173
C     3.36302   0.10103   2.22043
C     4.67312   0.57880   2.14078
C     5.34373   0.59052   0.91455
C     4.69060   0.12575  -0.23245
C     3.38004  -0.34695  -0.15814
N     0.47088   0.01443   1.88010
C    -0.86456   0.08010   1.90903
C    -1.36576   0.76604  -0.20059
C    -2.76360   0.23640  -0.26319
C    -3.13620  -1.06809   0.10871
C    -4.45529  -1.50678  -0.01977
C    -5.44111  -0.65614  -0.52709
C    -5.08651   0.63826  -0.91567
C    -3.76772   1.07838  -0.78477
C    -1.17267   2.33116  -0.08205
C     0.07592   2.64979   0.73538
C     1.10341   2.28087  -0.03877
C     0.45747   1.74573  -1.31085
O    -0.69587   2.61815  -1.41416
C    -0.27850   0.40546  -1.01574
C     0.00068  -0.72173  -1.89079
C    -0.98099  -1.85280  -2.06266
O     1.04881  -0.73264  -2.56451
H     1.34893  -4.02618  -0.03043
H     2.77510  -3.00012   0.35787
H     1.81329  -2.66865  -1.09452
H     2.85597   0.08165   3.18819
H     5.17374   0.93463   3.04436
H     6.36935   0.96144   0.85185
H     5.20087   0.14595  -1.19842
H     2.86193  -0.65233  -1.06679
H     0.94214   0.85627   2.21068
H    -1.41651  -0.83901   1.78634
H    -1.28291   0.89138   2.50509
H    -2.38619  -1.76009   0.48746
H    -4.71091  -2.52606   0.27976
H    -6.47356  -0.99995  -0.62357
H    -5.83856   1.31443  -1.32951
H    -3.51457   2.08288  -1.12432
H    -2.07738   2.89233   0.16708
H     0.07895   3.02931   1.75719
H     2.16883   2.27350   0.18264
H     1.05586   1.73817  -2.22539
H    -1.99447  -1.47622  -2.25888
H    -0.64626  -2.47563  -2.90278
H    -1.03337  -2.46996  -1.15476
