49
Generated by autodE on: 2022-06-05. E = -1311.832682 Ha
C     0.61483   0.45530  -4.95857
O    -0.09048   0.57889  -3.71410
C     0.38309  -0.14820  -2.70200
O     1.35087  -0.88687  -2.77833
N    -0.38366  -0.01338  -1.56643
C    -0.04894  -0.49009  -0.25379
C    -0.47787   0.40686   0.65912
C    -1.02138   1.59424  -0.13915
C     0.01282   2.73832  -0.16587
C     0.11033   3.55594  -1.41422
O     0.69591   2.94538   0.82214
N    -1.32059   1.04834  -1.45796
C    -2.68365   0.52686  -1.58764
C    -0.44924   0.45637   2.17376
C    -1.20188   1.63987   2.61920
N    -1.81812   2.53843   3.01717
C     1.02829   0.58389   2.69601
C     1.22862   1.24226   4.02636
O     1.93473   0.12147   2.04195
C    -1.12255  -0.77149   2.94543
C    -1.87938  -1.76848   2.06690
C    -1.01917  -2.95316   1.61073
C     0.41640  -2.63248   1.20901
C     0.61426  -1.86794  -0.14373
C     2.07989  -1.75299  -0.32347
N     3.23772  -1.72483  -0.35466
C     0.06906  -2.75273  -1.19790
N    -0.40826  -3.49787  -1.94550
H     0.08994   1.11109  -5.66246
H     0.58752  -0.58443  -5.31410
H     1.65871   0.77984  -4.84387
H    -1.94079   2.01787   0.29116
H     0.80453   4.39229  -1.26185
H     0.45829   2.91517  -2.24039
H    -0.88584   3.92535  -1.70491
H    -3.38621   1.36413  -1.47630
H    -2.80284   0.10060  -2.59261
H    -2.91936  -0.24608  -0.83284
H     0.45088   0.95070   4.74708
H     1.15070   2.33275   3.88218
H     2.22750   1.00084   4.41078
H    -0.34694  -1.29032   3.52753
H    -1.80608  -0.33788   3.68462
H    -2.71840  -2.16834   2.65610
H    -2.33371  -1.25120   1.20980
H    -0.93332  -3.65964   2.45205
H    -1.52750  -3.50137   0.80199
H     0.93887  -2.06414   1.98593
H     0.97581  -3.57142   1.09331
