28
Generated by autodE on: 2022-06-05. E = -741.678507 Ha
C     3.14011   0.58378   1.11267
C     2.71259   0.27670  -0.28614
O     3.21017   0.75414  -1.27633
C     1.51974  -0.75729  -0.44657
C     2.09811  -2.08866  -0.22166
N     2.57753  -3.13410  -0.07028
C     0.44093  -0.45532   0.49109
C    -0.60468  -0.00554   0.89802
C    -1.94246   0.58839   0.79062
C    -2.23155   1.54816   1.87488
N    -2.44775   2.32821   2.70346
C    -2.96701  -0.47878   0.81647
N    -3.76691  -1.31646   0.79483
C    -1.98372   1.33951  -0.60161
C    -1.48200   0.51405  -1.79913
C     0.03159   0.56812  -2.14852
C     0.89326  -0.68052  -1.87730
H     2.37991   1.23561   1.57455
H     4.10714   1.10207   1.10535
H     3.19000  -0.33365   1.71871
H    -1.37831   2.24900  -0.47596
H    -3.02741   1.64964  -0.75376
H    -1.81764  -0.53209  -1.70230
H    -2.02936   0.91291  -2.66594
H     0.10333   0.73794  -3.23312
H     0.49434   1.45412  -1.68511
H     1.73715  -0.71272  -2.57974
H     0.29734  -1.59203  -2.03102
