21
Generated by autodE on: 2022-06-05. E = -570.056318 Ha
C     4.01122   0.70523  -0.33363
O     2.99951  -0.30268  -0.32333
C     1.72854   0.12822  -0.15262
O     1.46550   1.32016  -0.01427
N     0.90915  -0.96898  -0.16951
N    -0.40351  -0.81907  -0.02822
C    -1.09330  -2.13006  -0.07123
C    -1.08981   0.30033   0.13091
C    -2.55162   0.39466   0.27810
C    -3.04632   1.80893   0.43680
O    -3.31888  -0.56371   0.27454
H     3.84674   1.42041  -1.15394
H     4.03179   1.25293   0.62086
H     4.96192   0.17877  -0.48257
H    -1.64079  -2.28502   0.86459
H    -1.80352  -2.14055  -0.90504
H    -0.31645  -2.88579  -0.20467
H    -0.50715   1.21549   0.15032
H    -2.57234   2.27952   1.31388
H    -2.75805   2.40844  -0.44255
H    -4.13760   1.81401   0.55184
