21
Generated by autodE on: 2022-07-27. E = -570.052415 Ha
C    -0.69175  -1.03744  -3.38880
O    -0.59705  -0.50515  -2.06422
C     0.20473  -1.16916  -1.20219
O     0.88992  -2.12360  -1.54940
N     0.28042  -0.64613   0.05646
N    -0.72169   0.05634   0.55688
C    -2.13570  -0.21714   0.16811
C    -0.54230   0.94610   1.51350
C     0.72409   1.49054   2.03201
C     2.05814   1.09936   1.47091
O     0.62445   2.31067   2.94503
H    -1.38792  -0.38403  -3.92853
H    -1.07961  -2.06675  -3.36896
H     0.29107  -1.02991  -3.88247
H    -2.77620   0.01536   1.02440
H    -2.40186   0.41235  -0.68671
H    -2.22661  -1.27538  -0.09768
H    -1.44431   1.34785   1.97246
H     2.83102   1.72747   1.93374
H     2.25788   0.03664   1.67468
H     2.06910   1.20745   0.37617
