49
Generated by autodE on: 2022-06-05. E = -1311.744547 Ha. Imaginary frequency = -100.3 cm-1
C    -0.62554   0.23079  -5.30163
O    -0.56911   0.75898  -3.97020
C     0.13623   0.04774  -3.07304
O     0.75747  -0.96353  -3.36593
N     0.18768   0.59800  -1.81769
C     0.31406  -0.68432   0.14990
C    -0.09503   0.07085   1.02634
C    -0.56751   2.11749  -0.30964
C     0.72267   2.67788   0.15478
C     2.02290   2.39966  -0.53739
O     0.66321   3.41014   1.14080
N    -0.79254   1.36785  -1.37885
C    -2.20453   1.07491  -1.72591
C    -0.56763   0.29953   2.40409
C    -1.92665   0.85664   2.36054
N    -3.01062   1.26683   2.31041
C     0.43251   1.21838   3.18592
C    -0.13779   2.19603   4.15885
O     1.61663   1.05590   2.99222
C    -0.59352  -1.08690   3.15262
C    -1.24238  -2.21817   2.33057
C    -0.28978  -3.29528   1.77631
C     0.97786  -2.89863   1.01219
C     0.78520  -2.01618  -0.28329
C     2.10137  -1.91221  -0.94633
N     3.18608  -1.84038  -1.34662
C    -0.21350  -2.64246  -1.17350
N    -1.05547  -3.15662  -1.78071
H    -1.24643   0.92888  -5.87533
H    -1.08113  -0.77004  -5.30085
H     0.38224   0.17390  -5.73765
H    -1.44593   2.54856   0.16763
H     2.78447   3.07670  -0.12857
H     2.32151   1.35535  -0.36332
H     1.93049   2.52606  -1.62545
H    -2.84414   1.41714  -0.90606
H    -2.47253   1.58907  -2.65469
H    -2.30838  -0.01014  -1.85369
H    -0.87663   1.70617   4.81243
H    -0.67006   2.97878   3.59434
H     0.66620   2.64864   4.75227
H     0.45303  -1.32579   3.38882
H    -1.11607  -0.93578   4.10799
H    -1.96413  -2.74376   2.97373
H    -1.84182  -1.79340   1.51084
H     0.07415  -3.90271   2.62164
H    -0.88435  -3.98014   1.15015
H     1.66886  -2.32587   1.64686
H     1.49768  -3.81666   0.70082
