39
Generated by autodE on: 2022-05-29. E = -1101.617036 Ha
C    -4.77691  -1.13087   1.80492
N    -3.95577  -0.57590   0.75183
C    -2.91370   0.23977   0.96752
O    -2.63063   0.73282   2.06483
C    -2.09820   0.59695  -0.30153
C    -2.62437   1.94685  -0.79315
N    -2.28356  -0.43335  -1.33985
C    -1.26995  -1.46831  -1.11054
C    -1.80254  -2.57483  -0.29585
N    -2.20493  -3.45555   0.34367
C    -0.05628  -0.80149  -0.40426
C     1.04265  -0.36954  -1.41988
O     0.46719   0.80756  -2.00064
C     0.30590   1.53567  -0.78092
C     1.71397   1.42179  -0.18178
C     2.28135   2.34430   0.72776
N     2.70159   3.13961   1.46657
C     2.17303   0.21740  -0.58943
C     3.37290  -0.53578  -0.18970
O     3.50956  -1.72329  -0.42019
O     4.26634   0.21702   0.44934
C     5.46082  -0.43677   0.90643
C    -0.58897   0.58479   0.07106
H    -4.43880  -2.14511   2.07863
H    -4.71462  -0.48896   2.69255
H    -5.82548  -1.18979   1.47993
H    -4.01152  -0.96496  -0.18695
H    -2.13173   2.23902  -1.73203
H    -3.70678   1.88863  -0.97701
H    -2.44069   2.72341  -0.03790
H    -2.09435  -0.01219  -2.24790
H    -0.97657  -1.91361  -2.07278
H     0.35926  -1.42909   0.39151
H     1.31645  -1.11085  -2.17672
H    -0.06163   2.55032  -0.95069
H     6.01357  -0.85942   0.05527
H     6.05596   0.33871   1.40133
H     5.20884  -1.23791   1.61586
H    -0.45615   0.77783   1.13981
