19
Generated by autodE on: 2022-05-29. E = -473.738706 Ha
C    -3.78818   0.35788   0.33310
N    -2.41675   0.61911  -0.05450
C    -1.41042  -0.17942   0.34829
O    -1.61434  -1.17762   1.07254
C    -0.03782   0.15032  -0.08798
C     0.37679   1.29977  -0.93757
N     0.84188  -0.72643   0.37508
C     2.17618  -0.88539   0.27282
C     3.04558  -0.05619  -0.44661
N     3.84523   0.58030  -1.02215
H    -3.90417   0.37308   1.42862
H    -4.12674  -0.62700  -0.02697
H    -4.43214   1.13235  -0.10055
H    -2.22204   1.41450  -0.65007
H    -0.47026   1.94099  -1.20847
H     0.84615   0.95389  -1.87402
H     1.11589   1.93047  -0.41586
H     0.36013  -1.44164   0.94367
H     2.59325  -1.74262   0.80011
