20
Generated by autodE on: 2022-05-29. E = -627.786333 Ha
C     3.54952  -0.03193   0.79535
O     2.11406  -0.06888   0.78330
C     1.50508   0.48048  -0.26799
O     2.08464   1.00898  -1.19918
C     0.04034   0.37807  -0.19490
C    -0.76191  -0.30857   0.64567
C    -0.43928  -1.12220   1.75175
N    -0.22742  -1.80133   2.67415
C    -2.20045  -0.09174   0.07437
C    -2.25851  -0.86742  -1.25797
C    -1.45761  -0.18953  -2.08425
C    -0.91962   0.98630  -1.24064
O    -2.05273   1.25158  -0.39633
H     3.90476   1.00845   0.78061
H     3.95273  -0.57003  -0.07457
H     3.85411  -0.52632   1.72457
H    -3.02421  -0.21065   0.78425
H    -2.80594  -1.79573  -1.41421
H    -1.16190  -0.40543  -3.10985
H    -0.56038   1.87640  -1.76512
