39
Generated by autodE on: 2022-05-29. E = -1101.515230 Ha. Imaginary frequency = -270.1 cm-1
C    -4.89363  -1.59898   1.68250
N    -4.24127  -0.93333   0.57228
C    -3.31192   0.02508   0.76228
O    -3.13229   0.56839   1.85947
C    -2.59222   0.48698  -0.47135
C    -2.80706   1.92580  -0.82910
N    -2.23906  -0.36644  -1.44515
C    -1.71926  -1.62352  -1.36235
C    -2.02133  -2.55953  -0.35683
N    -2.20056  -3.38237   0.45621
C     0.17212  -0.78753   0.05973
C     1.12055  -0.39949  -1.09127
O     0.43678   0.74580  -1.63018
C     0.33468   1.45878  -0.39156
C     1.84122   1.48024   0.00671
C     2.46640   2.49477   0.76138
N     2.93325   3.36525   1.37941
C     2.32932   0.30228  -0.44305
C     3.64613  -0.32555  -0.26966
O     3.87269  -1.48281  -0.57496
O     4.55099   0.50272   0.25509
C     5.86657  -0.02811   0.47439
C    -0.33974   0.40231   0.50414
H    -5.74425  -2.17876   1.30336
H    -5.25932  -0.86095   2.40950
H    -4.19910  -2.28382   2.19831
H    -4.33915  -1.34537  -0.34944
H    -2.53139   2.56174   0.02421
H    -2.20356   2.21681  -1.70040
H    -3.87009   2.12325  -1.05476
H    -1.94522   0.10226  -2.30271
H    -1.30051  -2.01261  -2.29053
H     0.23115  -1.73241   0.59451
H     1.34927  -1.15071  -1.85208
H    -0.13805   2.43787  -0.50340
H     5.82514  -0.87649   1.17265
H     6.45302   0.79147   0.90460
H     6.30949  -0.35738  -0.47661
H    -0.78586   0.62447   1.46959
