50
Generated by autodE on: 2022-06-22. E = -1129.557863 Ha
C    -2.52506  -2.81369   2.45364
N    -1.71074  -1.80236   1.81512
C    -1.93033  -1.40443   0.55642
O    -2.88286  -1.82282  -0.11467
C    -0.89699  -0.38172  -0.00727
C    -1.68116   0.88759  -0.41391
C    -2.81158   0.80941  -1.24923
C    -3.53233   1.95136  -1.60369
C    -3.14729   3.20965  -1.13302
C    -2.03080   3.30511  -0.30179
C    -1.30906   2.15994   0.05083
N     0.11443  -0.10729   1.01595
C     1.47422  -0.22839   0.54645
C     2.12563  -1.38680   1.21000
N     2.60148  -2.27794   1.78105
C     2.30568   1.01309   0.92654
O     1.81962   2.03924   1.34427
O     3.59856   0.81170   0.72919
C     4.48268   1.91789   0.99165
C     1.37897  -0.40753  -1.02708
C     2.52757  -1.24575  -1.59577
C     1.44240   0.96970  -1.71118
C    -0.04462  -1.08128  -1.17160
C    -0.62471  -0.90051  -2.57474
C     0.04598  -2.60098  -0.91977
H    -2.35537  -3.81155   2.01425
H    -3.59314  -2.57494   2.34331
H    -2.27820  -2.85384   3.52197
H    -0.84678  -1.47149   2.23800
H    -3.14213  -0.15879  -1.61208
H    -4.40380   1.85242  -2.25563
H    -3.71127   4.10325  -1.41081
H    -1.70717   4.27729   0.07778
H    -0.42928   2.29090   0.67839
H    -0.03467   0.73097   1.56705
H     4.22840   2.76380   0.33792
H     4.40256   2.22211   2.04429
H     5.49145   1.55217   0.77222
H     2.36388  -1.41523  -2.67024
H     2.64002  -2.22194  -1.10945
H     3.47653  -0.70227  -1.48181
H     2.42537   1.43471  -1.54771
H     0.66982   1.66331  -1.36419
H     1.32820   0.84656  -2.79572
H    -1.57752  -1.44074  -2.66271
H    -0.80213   0.14640  -2.84260
H     0.06921  -1.33130  -3.31289
H    -0.94811  -3.05594  -1.00564
H     0.68341  -3.07238  -1.67873
H     0.44941  -2.85634   0.06818
