18
Generated by autodE on: 2022-06-22. E = -235.968069 Ha
C    -1.91521  -0.45564  -0.10315
C    -0.61049   0.28210   0.07918
C    -0.83373   1.72598   0.46008
C     0.61048  -0.28207  -0.07930
C     1.91520   0.45557   0.10342
C     0.83375  -1.72592  -0.46028
H    -2.50904  -0.42131   0.82803
H    -2.53197   0.04113  -0.87351
H    -1.80412  -1.50788  -0.39093
H    -1.41411   1.79022   1.39813
H     0.08698   2.30591   0.59512
H    -1.44321   2.23512  -0.30799
H     2.53212  -0.04194   0.87317
H     2.50887   0.42220  -0.82790
H     1.80409   1.50750   0.39234
H     1.44133  -2.23576   0.30885
H    -0.08699  -2.30530  -0.59757
H     1.41606  -1.79004  -1.39713
