50
Generated by autodE on: 2022-06-22. E = -1129.499476 Ha. Imaginary frequency = -328.7 cm-1
C    -1.47640  -2.64110   2.72965
N    -1.32680  -1.42408   1.95867
C    -1.15721  -1.45635   0.62136
O    -1.30454  -2.49090  -0.03041
C    -0.87666  -0.07172   0.02507
C    -2.09627   0.61559  -0.46984
C    -3.17572  -0.13956  -0.97151
C    -4.30997   0.48819  -1.48824
C    -4.39811   1.88227  -1.51019
C    -3.33817   2.64414  -1.00701
C    -2.20073   2.02103  -0.49630
N     0.01457   0.67070   0.75567
C     1.29698   0.22891   1.04696
C     1.56192  -0.99907   1.69412
N     1.83885  -2.01187   2.20686
C     2.28876   1.29430   1.12696
O     2.06087   2.45264   0.79509
O     3.48540   0.86979   1.55232
C     4.54544   1.83476   1.56416
C     1.63267  -0.74019  -1.26587
C     1.92682  -2.19400  -1.03954
C     2.86081   0.09553  -1.51764
C     0.36748  -0.33981  -1.78309
C     0.28016   1.05880  -2.35909
C    -0.42012  -1.34059  -2.60771
H    -1.75436  -2.38064   3.75830
H    -2.26078  -3.27694   2.29565
H    -0.53369  -3.21405   2.74806
H    -1.12437  -0.55924   2.44958
H    -3.12541  -1.22775  -0.95893
H    -5.13148  -0.12052  -1.87269
H    -5.28711   2.37332  -1.91218
H    -3.39491   3.73494  -1.01246
H    -1.39491   2.65324  -0.12091
H     0.02534   1.67380   0.57167
H     4.73182   2.21400   0.54894
H     4.29679   2.67388   2.22959
H     5.42956   1.30513   1.93728
H     1.07147  -2.74723  -0.63443
H     2.20060  -2.65771  -2.00656
H     2.78459  -2.32785  -0.36597
H     2.68726   1.17539  -1.45789
H     3.68012  -0.17080  -0.83631
H     3.21138  -0.11694  -2.54712
H    -0.74329   1.29259  -2.68043
H     0.60730   1.83476  -1.65280
H     0.92714   1.13713  -3.25012
H    -0.40716  -2.35501  -2.20423
H     0.02185  -1.36367  -3.62142
H    -1.46784  -1.02751  -2.72357
