23
Generated by autodE on: 2022-06-18. E = -351.521385 Ha
C     3.00256   2.17395  -0.74710
C     2.31612   1.12314  -0.24669
C     3.00926   0.03354   0.53086
C     0.87269   1.02778  -0.45562
C     0.07292   0.02831  -0.00594
C    -1.35589  -0.01779  -0.24059
C    -2.22141  -0.97608   0.17677
C    -3.68552  -0.88451  -0.14856
C    -1.82778  -2.18531   0.97675
H     2.49653   2.96355  -1.31117
H     4.08258   2.27031  -0.60514
H     4.08784   0.22813   0.61372
H     2.59385  -0.05462   1.54852
H     2.87035  -0.94846   0.04879
H     0.41634   1.84502  -1.02715
H     0.52081  -0.78995   0.56435
H    -1.76794   0.81831  -0.81857
H    -4.01565  -1.77132  -0.71906
H    -4.29193  -0.87362   0.77501
H    -3.92636   0.01511  -0.73375
H    -2.38753  -2.21214   1.92838
H    -0.75613  -2.23210   1.20904
H    -2.10287  -3.10760   0.43500
