45
Generated by autodE on: 2022-06-18. E = -885.403850 Ha. Imaginary frequency = -412.5 cm-1
C    -1.56035   1.26920   1.95657
C    -1.97427   0.12316   1.38185
C    -2.91284  -0.80348   2.11204
C    -1.54399  -0.33613   0.03966
C     0.02477  -1.77889   0.45921
C    -0.47438  -3.09136  -0.00664
C    -1.42165  -3.85165   0.87639
O    -0.15862  -3.51043  -1.12179
N     1.00827  -1.25819  -0.32943
N     1.20517   0.05838  -0.47568
C     1.53861   0.80775   0.64973
C     1.58894   2.21242   0.48885
C     1.92230   3.04223   1.55455
C     2.24604   2.50052   2.80673
C     2.24881   1.11152   2.96185
C     1.90127   0.26932   1.90302
C    -0.88443   0.50592  -0.89414
C    -0.92673   0.15144  -2.30454
C    -0.55057   0.93019  -3.34716
C    -0.00402   2.32054  -3.18958
C    -0.61738   0.42015  -4.75778
H    -1.91607   1.54888   2.95216
H    -0.86559   1.95581   1.47089
H    -3.77121  -1.08101   1.47751
H    -3.29243  -0.34809   3.03774
H    -2.40303  -1.74301   2.37841
H    -2.18311  -1.10846  -0.39806
H     0.00827  -1.55200   1.52251
H    -1.43229  -4.90911   0.58013
H    -1.16169  -3.74802   1.93926
H    -2.43730  -3.44426   0.74007
H     1.04895  -1.74590  -1.22857
H     1.35002   2.63461  -0.48854
H     1.93794   4.12506   1.40642
H     2.50754   3.15284   3.64270
H     2.52487   0.66962   3.92293
H     1.93462  -0.81036   2.04590
H    -0.72236   1.54916  -0.62989
H    -1.27662  -0.86403  -2.52486
H    -0.22140   2.76516  -2.20973
H    -0.40156   2.98872  -3.97124
H     1.09432   2.30995  -3.31531
H     0.37627   0.47611  -5.23812
H    -1.28822   1.04705  -5.37217
H    -0.96974  -0.62062  -4.80697
