10
Generated by autodE on: 2022-10-06. E = -455.051701 Ha
O    -2.49681   0.53641  -0.11084
C    -1.70048   0.11759  -0.99554
O    -1.99751  -0.14507  -2.19438
C    -0.25049  -0.09948  -0.61334
C     0.25048   0.09951   0.61329
C     1.70049  -0.11758   0.99555
O     2.49685  -0.53631   0.11084
O     1.99746   0.14494   2.19442
H     0.41424  -0.44677  -1.41145
H    -0.41427   0.44680   1.41138
