30
Generated by autodE on: 2022-10-06. E = -1041.171776 Ha. Imaginary frequency = -412.2 cm-1
C    -2.10293   3.11975   0.02474
N    -1.06593   2.24751   0.53796
C    -0.18914   1.65871  -0.30636
O    -0.11223   1.97269  -1.50057
C     0.71912   0.63075   0.30751
C     2.09160   0.38416  -0.19361
O     2.94623  -0.14895   0.50062
O     2.29974   0.72297  -1.46270
C     3.55429   0.31902  -2.02861
N     0.57939   0.23983   1.60623
N    -0.64690   0.02401   2.05351
C    -1.38377  -1.26465   0.68802
C    -2.79968  -0.72208   0.59945
O    -3.12202  -0.06125  -0.42749
O    -3.55057  -0.97125   1.58026
C    -0.49386  -1.19209  -0.39477
C     0.69813  -2.10553  -0.47243
O     1.08144  -2.65270   0.60290
O     1.26132  -2.23164  -1.59819
H    -2.61938   3.59420   0.86939
H    -2.84357   2.55994  -0.57082
H    -1.67061   3.90590  -0.60973
H    -1.25546   1.72676   1.39789
H     3.53675   0.66357  -3.06902
H     3.64325  -0.77584  -1.99122
H     4.39442   0.77973  -1.48979
H     1.33872  -0.38197   1.90918
H    -0.57344  -0.51584   2.92118
H    -1.25106  -2.10278   1.37638
H    -0.82677  -0.72377  -1.32176
