46
Generated by autodE on: 2022-05-30. E = -1183.591788 Ha
C     3.83388   2.09673  -1.16354
N     3.15936   1.08822  -0.37821
C     2.54952   1.34509   0.78625
O     2.60556   2.44091   1.36265
C     1.69289   0.18358   1.34416
C     1.78989   0.20676   2.87845
C     0.21143   0.39433   0.90832
C    -0.02965   1.30478  -0.33931
O     0.24468   0.41855  -1.43127
C    -0.73320  -0.56689  -1.07295
C    -1.97862   0.30180  -0.90283
C    -3.35127  -0.23190  -1.05315
F    -3.65320  -1.12538  -0.07642
F    -4.30429   0.71684  -1.01734
F    -3.50523  -0.89876  -2.22007
C    -1.54606   1.48112  -0.42207
C    -2.23338   2.69414   0.08793
C    -0.28252  -0.97793   0.36029
C     0.91098  -1.96522   0.47020
C     1.14633  -2.77870  -0.80797
C     0.63445  -2.94401   1.62886
N     2.07623  -1.08224   0.71099
C     3.28919  -1.70774   1.20202
H     3.13094   2.64676  -1.81388
H     4.32152   2.82198  -0.49789
H     4.59718   1.62602  -1.79808
H     2.94711   0.16813  -0.76283
H     1.13176  -0.55423   3.31949
H     2.81813   0.02394   3.22237
H     1.48015   1.19150   3.25205
H    -0.37301   0.76193   1.75924
H     0.56082   2.22425  -0.40042
H    -0.79498  -1.36492  -1.81764
H    -3.32578   2.61384   0.04840
H    -1.91494   3.58089  -0.48571
H    -1.92739   2.87443   1.13303
H    -1.14281  -1.37094   0.91331
H     1.98157  -3.48186  -0.66952
H     1.39048  -2.12372  -1.65618
H     0.25553  -3.37234  -1.06409
H     1.47812  -3.63207   1.78660
H    -0.25277  -3.55252   1.39576
H     0.44045  -2.41348   2.57233
H     3.21484  -2.10476   2.23229
H     4.11610  -0.98198   1.18649
H     3.57561  -2.54073   0.54288
