19
Generated by autodE on: 2022-05-30. E = -684.055147 Ha
C    -1.28762   2.24850  -0.11501
C    -0.95909   0.82488  -0.36592
C     0.13808   0.07378  -0.18875
C     1.46031   0.38360   0.39084
F     2.47356   0.00461  -0.42268
F     1.64370   1.68942   0.65700
F     1.65188  -0.28682   1.55437
C    -0.29035  -1.37747  -0.53020
C    -1.27055  -1.82501   0.57672
C    -2.36482  -1.08244   0.38253
C    -2.02820  -0.20203  -0.84002
O    -1.20815  -1.10504  -1.60125
H    -2.10324   2.30743   0.62756
H    -0.42997   2.82366   0.25286
H    -1.67216   2.71981  -1.03516
H     0.50396  -2.07218  -0.82305
H    -1.04429  -2.54673   1.36068
H    -3.28393  -1.02458   0.96431
H    -2.86137   0.20328  -1.42445
