27
Generated by autodE on: 2022-07-27. E = -499.426604 Ha
C     1.10410   2.92359  -1.52220
N     0.80582   1.58733  -1.05174
C     0.65739   1.35128   0.31243
O     0.96409   2.27511   1.11881
C     0.15826   0.09030   0.74662
C    -0.16690  -0.12811   2.19566
N    -0.03224  -0.97918  -0.15913
C     1.11401  -1.42340  -0.97692
C    -1.13793  -1.70485  -0.16510
C    -1.17331  -3.04467  -0.82806
C    -2.37728  -1.16834   0.45671
H     2.02536   3.30336  -1.05698
H     1.25633   2.89532  -2.61038
H     0.30137   3.65431  -1.30486
H     0.23815   1.02373  -1.67489
H     0.55195   0.42944   2.81644
H    -1.17654   0.19683   2.51896
H    -0.08237  -1.19591   2.45797
H     1.54504  -2.33353  -0.53498
H     1.87101  -0.63681  -0.97576
H     0.80279  -1.63735  -2.00803
H    -0.27023  -3.63827  -0.62122
H    -1.24860  -2.93881  -1.92552
H    -2.05191  -3.60932  -0.48936
H    -2.47422  -1.44324   1.52217
H    -3.25576  -1.57677  -0.06468
H    -2.37864  -0.06774   0.40737
