34
Generated by autodE on: 2022-06-17. E = -728.368159 Ha
C    -1.83959  -2.08656  -0.21736
C    -0.74685  -1.73043   0.46760
C    -0.00944  -2.65167   1.39684
C    -0.11019  -0.36117   0.33636
C     1.12621  -0.38826  -0.62496
C     2.37588   0.20269  -0.03160
C     3.54834  -0.42237   0.18314
C     4.70134   0.30954   0.81695
C     3.83083  -1.86119  -0.15268
C     0.59888   0.43566  -1.77563
N    -0.53154   1.00285  -1.57453
N    -0.96687   0.64158  -0.31433
C    -2.09470   1.13986   0.26293
O    -2.44693   0.83663   1.39486
O    -2.75972   1.98891  -0.53528
C    -3.95256   2.55815   0.01620
H    -2.25579  -3.09384  -0.12652
H    -2.35295  -1.39083  -0.88631
H     1.05212  -2.73883   1.10798
H    -0.02006  -2.24939   2.42463
H    -0.45157  -3.65789   1.40854
H     0.17978  -0.00106   1.33435
H     1.31234  -1.41509  -0.96715
H     2.28410   1.25309   0.26976
H     4.44863   1.35258   1.05770
H     5.57952   0.30802   0.14749
H     5.02007  -0.19645   1.74529
H     2.99408  -2.37582  -0.64203
H     4.71117  -1.93278  -0.81459
H     4.08780  -2.42011   0.76399
H     1.13145   0.58747  -2.71699
H    -4.35591   3.21866  -0.76059
H    -4.68362   1.77310   0.25902
H    -3.72598   3.13843   0.92269
