34
Generated by autodE on: 2022-06-17. E = -728.275128 Ha. Imaginary frequency = -407.6 cm-1
C    -1.44749  -1.98230  -0.47336
C    -1.08947  -1.51784   0.74452
C    -2.02246  -1.60750   1.92657
C     0.18997  -0.86053   0.99939
C     1.29397  -0.88299   0.15520
C     2.58795  -0.33750   0.58407
C     3.77230  -0.46646  -0.05628
C     5.02143   0.15751   0.49988
C     3.95515  -1.20948  -1.35015
C     0.80874   0.58242  -1.28284
N    -0.04362   1.31391  -0.85086
N    -0.70694   1.55041   0.23161
C    -2.07168   1.42242   0.15440
O    -2.80199   1.59814   1.12039
O    -2.53238   1.05399  -1.05860
C    -3.93675   0.79601  -1.15121
H    -2.42124  -2.45463  -0.62725
H    -0.79602  -1.89235  -1.34626
H    -2.97738  -2.07911   1.65427
H    -1.56477  -2.19099   2.74347
H    -2.23184  -0.60390   2.32876
H     0.29652  -0.36759   1.96911
H     1.29875  -1.62909  -0.64466
H     2.56272   0.24971   1.50901
H     4.83357   0.69405   1.44149
H     5.45949   0.86703  -0.22485
H     5.79486  -0.60969   0.68278
H     4.71916  -1.99837  -1.23572
H     4.33445  -0.52656  -2.13064
H     3.03552  -1.67791  -1.72445
H     1.47675   0.51783  -2.14075
H    -4.12228   0.50130  -2.19111
H    -4.22396  -0.02008  -0.47194
H    -4.51708   1.69767  -0.90617
