43
Generated by autodE on: 2022-10-21. E = -1236.991115 Ha
C     1.82664   0.32773   3.30062
O     1.41624   0.47898   1.92803
C     2.24179   0.06051   0.99736
O     3.36415  -0.35538   1.16014
C     1.56934   0.12240  -0.40002
C     2.61898   0.30131  -1.41889
N     3.41870   0.46917  -2.24000
O     0.65395   1.17936  -0.47295
C    -0.67983   0.78504  -0.84082
C    -0.85819   0.96200  -2.34769
C    -1.66850   1.63522  -0.05660
C    -3.04482   1.46664  -0.27350
C    -3.96952   2.20955   0.46281
C    -3.53103   3.13239   1.41776
C    -2.16149   3.30197   1.63496
C    -1.23231   2.55476   0.90496
C    -0.74908  -0.72494  -0.40455
C    -1.10910  -0.84286   1.03111
N    -1.46124  -0.95692   2.12855
O    -1.67601  -1.38918  -1.20033
C    -1.97185  -2.75426  -0.88332
C     0.73843  -1.23996  -0.58583
C     0.90003  -1.78862  -1.94468
N     1.05272  -2.25146  -2.99521
O     1.02175  -2.18627   0.39439
C     2.10167  -3.10500   0.16477
H     2.72295   0.93270   3.49324
H     0.98226   0.68223   3.90088
H     2.03340  -0.73108   3.50861
H    -1.86512   0.67227  -2.66860
H    -0.12626   0.37281  -2.91663
H    -0.70279   2.02538  -2.57752
H    -3.39931   0.74007  -1.00585
H    -5.03828   2.06522   0.28860
H    -4.25536   3.71521   1.99152
H    -1.80878   4.01848   2.38052
H    -0.16651   2.68041   1.08826
H    -1.08097  -3.39473  -0.96818
H    -2.72015  -3.07419  -1.61839
H    -2.39344  -2.84164   0.13033
H     3.02159  -2.57716  -0.12459
H     1.82519  -3.83811  -0.60811
H     2.25748  -3.61986   1.12025
