16
Generated by autodE on: 2022-10-21. E = -492.332685 Ha
C     2.78703   0.73770   0.60642
O     1.60759   0.79233  -0.20918
C     0.67371  -0.16357  -0.02235
C     1.06975  -1.50034   0.30633
N     1.41686  -2.57305   0.59285
C    -0.64726   0.11712  -0.22054
C    -1.05000   1.46741  -0.47866
N    -1.40590   2.55810  -0.67107
O    -1.55773  -0.87803  -0.24812
C    -2.88024  -0.58093   0.22244
H     3.38362   1.61556   0.33189
H     2.52131   0.78324   1.67396
H     3.36354  -0.17778   0.40061
H    -3.44133  -1.52043   0.15660
H    -3.36088   0.17935  -0.41295
H    -2.84986  -0.23404   1.26694
