27
Generated by autodE on: 2022-10-26. E = -744.607829 Ha
C     3.15452  -0.83041   2.34947
O     2.15425  -0.60815   1.35096
C     2.53786  -0.79592   0.06847
O     3.67416  -1.14672  -0.24052
C     1.48904  -0.55527  -0.88760
C     1.76771  -0.63732  -2.25937
N     2.07071  -0.70571  -3.38878
O     0.29839  -0.12822  -0.36457
C    -0.88031   0.03918  -0.85239
C    -1.16467  -0.29053  -2.26597
C    -1.85335   0.54299   0.10272
C    -3.17388   0.84621  -0.29401
C    -4.09226   1.33271   0.63398
C    -3.71399   1.52115   1.96668
C    -2.40527   1.22432   2.37247
C    -1.48041   0.74409   1.45408
H     4.00299  -0.14292   2.21547
H     2.66682  -0.63924   3.31290
H     3.52127  -1.86694   2.31327
H    -2.23546  -0.26599  -2.48503
H    -0.77476  -1.29709  -2.48777
H    -0.64864   0.41574  -2.93704
H    -3.48569   0.71049  -1.32906
H    -5.10971   1.56619   0.31412
H    -4.43743   1.90097   2.69156
H    -2.10860   1.37121   3.41302
H    -0.46251   0.51442   1.76884
