60
Generated by autodE on: 2022-06-08. E = -1918.874243 Ha
C    -1.71022  -7.87532  -0.49450
N    -1.95540  -9.27213  -0.79187
C    -1.80291  -9.76700  -2.02237
O    -1.45550  -9.05313  -2.97615
C    -2.09581 -11.29557  -2.13470
C    -1.89478 -11.92518  -3.55572
O    -1.85260 -13.15814  -3.64576
N    -1.80163 -11.11625  -4.60894
C    -1.68041 -11.63845  -5.95444
N    -1.25868 -12.03249  -1.18372
C    -2.08552 -12.88965  -0.30212
C    -1.59615 -14.33574  -0.38335
C    -1.88925 -12.26377   1.12214
C    -1.07405 -12.99967   2.14309
O    -2.26729 -11.12022   1.33529
C    -3.52302 -12.64522  -0.78707
C    -3.52362 -11.65646  -1.70221
C    -4.67792 -10.93883  -2.35609
F    -4.15192 -10.02203  -3.24537
Cl   -5.58813 -12.11115  -3.46228
C    -5.63700 -10.15118  -1.43071
C    -5.41682 -10.27630   0.07851
C    -6.04784 -11.51261   0.73244
C    -6.06212 -12.78572  -0.10830
C    -4.70330 -13.52358  -0.36361
C    -4.42716 -14.21563   0.99549
C    -4.84067 -15.64140   1.21400
O    -3.93843 -13.56074   1.89869
C    -4.90595 -14.59774  -1.48464
C    -6.26731 -15.21005  -1.69265
O    -3.97381 -14.92609  -2.19179
H    -2.00991  -7.67882   0.54256
H    -2.29320  -7.22414  -1.16362
H    -0.64529  -7.61340  -0.61077
H    -2.15419  -9.91895  -0.02175
H    -1.75099 -10.11492  -4.40322
H    -1.60333 -10.79909  -6.65651
H    -0.78767 -12.27556  -6.06117
H    -2.56100 -12.24482  -6.22122
H    -0.60342 -12.61973  -1.69227
H    -2.13628 -15.01016   0.29312
H    -1.71419 -14.70104  -1.40769
H    -0.53175 -14.38193  -0.11253
H    -1.09387 -12.44932   3.09243
H    -0.03429 -13.04975   1.77732
H    -1.41943 -14.03040   2.28825
H    -5.46910  -9.10498  -1.72199
H    -6.67640 -10.38499  -1.69938
H    -5.85817  -9.38098   0.54312
H    -4.34415 -10.22654   0.29629
H    -7.10670 -11.29025   0.94445
H    -5.57203 -11.69725   1.70730
H    -6.73456 -13.50744   0.37661
H    -6.52598 -12.57178  -1.07780
H    -5.93786 -15.72349   1.17591
H    -4.49076 -15.96903   2.20076
H    -4.43329 -16.29734   0.43005
H    -6.81020 -15.40894  -0.76178
H    -6.15018 -16.13389  -2.27346
H    -6.87792 -14.50565  -2.27962
