45
Generated by autodE on: 2022-06-18. E = -922.622849 Ha. Imaginary frequency = -390.1 cm-1
C    -0.78759   3.42003  -2.00675
N    -0.74949   2.02347  -1.62100
C    -0.66194   1.65161  -0.32775
O    -0.81501   2.45554   0.59862
C    -0.46383   0.15880  -0.13101
C    -1.71693  -0.59589   0.08341
C    -1.88809  -1.91501  -0.38249
C    -3.05269  -2.62921  -0.09759
C    -4.07769  -2.04656   0.65363
C    -3.92617  -0.73299   1.11103
C    -2.76472  -0.01537   0.82930
N     0.54138  -0.44446  -0.83130
C     1.84642  -0.02082  -0.86206
C     2.22800   1.34921  -1.33661
C     2.77902  -1.13948  -0.89673
C     4.25580  -0.85880  -1.00965
O     2.36993  -2.31222  -0.78933
C     1.94108   0.32026   1.54525
C     2.53870   1.69005   1.68404
C     0.60960   0.04949   1.85024
C     0.22106  -1.34406   2.27713
H    -1.58658   3.94677  -1.46627
H     0.16826   3.92545  -1.78358
H    -0.98161   3.48881  -3.08424
H    -0.52361   1.33290  -2.32962
H    -1.12001  -2.39897  -0.98772
H    -3.15980  -3.64970  -0.47299
H    -4.98794  -2.60809   0.87553
H    -4.71948  -0.26159   1.69613
H    -2.65474   1.00168   1.20609
H     0.53516  -1.46833  -0.77445
H     1.97717   1.47482  -2.40486
H     1.73084   2.15835  -0.78900
H     3.30635   1.50715  -1.22850
H     4.81342  -1.79128  -0.85300
H     4.49541  -0.45842  -2.00851
H     4.57861  -0.10744  -0.27270
H     2.64416  -0.51588   1.61035
H     1.82184   2.47777   1.40831
H     3.44854   1.81758   1.07973
H     2.83133   1.86975   2.73554
H    -0.00607   0.87859   2.20835
H     0.68050  -1.59451   3.24984
H     0.57752  -2.09574   1.55299
H    -0.86471  -1.46554   2.38746
