51
Generated by autodE on: 2022-06-09. E = -1374.960349 Ha
C     0.61031  -2.10898  -3.00091
N     0.75613  -1.39876  -1.74629
C     0.50405  -2.00570  -0.57502
O     0.26960  -3.21475  -0.47800
C     0.55900  -1.09804   0.65880
C     1.86477  -0.33693   0.69179
C     3.16671  -1.08420   0.63561
O     3.21553  -2.29564   0.54488
O     4.22873  -0.29302   0.69197
C     5.51345  -0.93634   0.64560
N     1.81585   0.93088   0.79649
C     0.41888   1.38203   0.80237
C     0.24798   2.36171   1.96152
C     0.25094   2.05800  -0.57561
O     0.50497   1.49020  -1.62236
O    -0.17396   3.30738  -0.51435
C    -0.43002   3.97262  -1.76407
C    -0.50001   0.07405   0.85807
C    -1.74460   0.16981  -0.01906
C    -2.23448  -0.88730  -0.80263
C    -3.40647  -0.74943  -1.55107
C    -4.13314   0.44290  -1.52088
C    -3.68577   1.48789  -0.70966
C    -2.51386   1.34639   0.03763
C    -0.95793  -0.27602   2.33933
C    -1.82194  -1.52353   2.25626
C    -0.96781  -2.53320   2.05076
C     0.40517  -1.88962   2.01784
O     0.24693  -0.78622   2.91979
H     1.00776  -1.48657  -3.81259
H     1.16485  -3.05753  -2.97335
H    -0.44855  -2.33661  -3.21563
H     0.76674  -0.37420  -1.76605
H     5.62397  -1.62696   1.49379
H     6.25421  -0.13151   0.70841
H     5.62777  -1.49061  -0.29689
H    -0.78337   2.72591   2.04424
H     0.91170   3.22406   1.81795
H     0.52514   1.86929   2.90204
H    -0.76263   4.98294  -1.50210
H    -1.21788   3.43799  -2.31375
H     0.48576   4.01220  -2.36958
H    -1.73278  -1.85061  -0.82074
H    -3.75368  -1.59008  -2.15635
H    -5.04661   0.55027  -2.11024
H    -4.25215   2.41996  -0.64759
H    -2.20693   2.17271   0.67625
H    -1.35789   0.57194   2.90097
H    -2.91053  -1.53776   2.27281
H    -1.17409  -3.58458   1.86351
H     1.27020  -2.50664   2.27607
