30
Generated by autodE on: 2022-06-09. E = -746.806746 Ha
C    -0.93518  -2.30360  -0.88268
N    -0.32140  -2.58242   0.40192
C    -0.04907  -1.72502   1.40785
O     0.40319  -2.11927   2.49568
C    -0.34767  -0.28466   1.22332
C    -0.01678   0.62343   0.28214
C     0.77226   0.52429  -0.93954
C     0.46119   1.34252  -2.04370
C     1.17703   1.22824  -3.23655
C     2.22685   0.31042  -3.34199
C     2.56003  -0.49110  -2.24338
C     1.84299  -0.38536  -1.05257
C    -0.75029   1.92229   0.74235
C    -2.26258   1.67481   0.56945
C    -2.56858   0.77422   1.50921
C    -1.23457   0.49041   2.23157
O    -0.61908   1.78893   2.16686
H    -1.51986  -1.37756  -0.83370
H    -0.18904  -2.20358  -1.68700
H    -1.61536  -3.12711  -1.14301
H    -0.06445  -3.54786   0.59672
H    -0.36108   2.05791  -1.97256
H     0.91492   1.86092  -4.08776
H     2.79053   0.22560  -4.27391
H     3.38963  -1.19851  -2.31391
H     2.12402  -0.99707  -0.19355
H    -0.34074   2.86828   0.37356
H    -2.88478   2.11119  -0.21114
H    -3.51162   0.26731   1.71090
H    -1.27321   0.09004   3.24979
