21
Generated by autodE on: 2022-06-09. E = -628.048205 Ha
C     4.50367   0.68321   0.35946
O     3.29137  -0.08799   0.45574
C     2.36704   0.14118  -0.47570
O     2.46465   0.92882  -1.39540
C     1.22442  -0.75855  -0.32538
N     0.15006  -0.63382   0.21327
C    -1.04058  -0.57545   0.69651
C    -1.35829  -1.05880   2.08003
C    -2.06280  -0.00637  -0.20703
O    -1.84823   0.38274  -1.34220
O    -3.26542   0.02507   0.38030
C    -4.34604   0.55704  -0.39778
H     5.13541   0.34857   1.18981
H     4.28428   1.75596   0.45596
H     5.00195   0.49161  -0.60152
H    -2.12371  -1.85020   2.04437
H    -1.75983  -0.23748   2.69438
H    -0.45663  -1.45601   2.56426
H    -4.49794  -0.04291  -1.30687
H    -4.14069   1.60015  -0.67934
H    -5.23369   0.50534   0.24315
