51
Generated by autodE on: 2022-06-09. E = -1374.865824 Ha. Imaginary frequency = -296.6 cm-1
C     1.68506  -2.31814  -2.27431
N     1.05602  -1.54074  -1.22833
C     0.81370  -2.06539  -0.01286
O     1.07732  -3.24677   0.26792
C     0.27523  -1.16479   1.03980
C     2.08117   0.16949   1.02071
C     3.39238  -0.46850   1.15509
O     3.93302  -0.59201   2.23612
O     3.82283  -0.96605   0.00459
C     5.01345  -1.77621   0.05205
N     1.61295   1.27980   0.94030
C     0.51678   1.98626   0.74818
C    -0.00454   2.88996   1.81875
C     0.07316   2.06409  -0.65048
O     0.52165   1.38588  -1.56890
O    -0.92067   2.94154  -0.80512
C    -1.50959   3.03576  -2.10988
C    -0.83939  -0.32271   1.06838
C    -1.91707  -0.05533   0.10814
C    -2.03606  -0.71273  -1.13532
C    -3.10815  -0.45410  -1.98926
C    -4.09694   0.46848  -1.63328
C    -4.00146   1.12580  -0.40327
C    -2.93279   0.86609   0.45369
C    -1.15358  -0.22197   2.59454
C    -1.77985  -1.58189   2.96050
C    -0.76024  -2.44749   2.91159
C     0.46086  -1.59781   2.52331
O     0.15000  -0.35637   3.17139
H     1.80496  -1.68429  -3.16203
H     2.67809  -2.68111  -1.96064
H     1.07473  -3.19425  -2.54622
H     0.89569  -0.54236  -1.37529
H     5.20772  -2.07734  -0.98284
H     5.85649  -1.19393   0.44834
H     4.83691  -2.65884   0.68271
H    -1.10288   2.89948   1.79245
H     0.34039   3.92859   1.67768
H     0.32755   2.53781   2.80411
H    -0.77990   3.44105  -2.82604
H    -2.35950   3.71957  -2.00709
H    -1.85372   2.05072  -2.45015
H    -1.29287  -1.44665  -1.43563
H    -3.17243  -0.98528  -2.94201
H    -4.93359   0.67081  -2.30580
H    -4.76426   1.84961  -0.10670
H    -2.87915   1.40101   1.40187
H    -1.65901   0.68122   2.94614
H    -2.84138  -1.76122   3.12785
H    -0.75586  -3.52984   3.03363
H     1.45104  -1.97393   2.79751
