48
Generated by autodE on: 2022-05-31. E = -1273.410905 Ha
C     0.52646  -0.43211   2.61539
N    -0.24489  -0.06172   1.44155
C    -1.50708  -0.76874   1.24579
C    -2.52805  -0.42301   2.34407
C    -1.34784  -2.25361   1.30389
N    -1.22122  -3.39422   1.47405
C    -1.94821  -0.35527  -0.19542
F    -2.37202  -1.45073  -0.91838
C    -2.99579   0.79502  -0.25484
C    -3.29962   1.05304  -1.72027
C    -2.22056   1.68215  -2.20160
C    -1.25629   1.78350  -1.02871
O    -2.14370   1.89476   0.09039
C    -0.69451   0.33128  -0.83345
F    -0.37380  -0.17324  -2.07698
C     0.48529   0.13020   0.17170
C     1.35657  -1.10752  -0.14439
C     2.65500  -1.17113   0.39057
C     3.43998  -2.31807   0.25854
C     2.94210  -3.43639  -0.41574
C     1.65196  -3.39135  -0.94747
C     0.86749  -2.24269  -0.81115
C     1.32767   1.40848   0.19097
C     1.15508   2.39581   1.16704
C     1.86459   3.59948   1.09425
C     2.74364   3.83717   0.03536
C     2.90711   2.86166  -0.95443
C     2.20615   1.65738  -0.87493
H     1.42038   0.19944   2.68414
H    -0.06912  -0.26212   3.52280
H     0.85643  -1.48813   2.60697
H    -3.50018  -0.88084   2.11385
H    -2.19196  -0.80934   3.31479
H    -2.63839   0.66595   2.41487
H    -3.84442   0.70037   0.42643
H    -4.19382   0.71828  -2.24452
H    -2.00248   1.98908  -3.22362
H    -0.51498   2.58485  -1.04258
H     3.06286  -0.31111   0.92212
H     4.44544  -2.33517   0.68585
H     3.55445  -4.33464  -0.52462
H     1.24382  -4.25701  -1.47451
H    -0.13218  -2.25087  -1.23713
H     0.44866   2.23220   1.97962
H     1.72197   4.35645   1.86922
H     3.29606   4.77798  -0.02232
H     3.58448   3.03891  -1.79320
H     2.33524   0.90586  -1.65576
