35
Generated by autodE on: 2022-05-31. E = -767.252791 Ha
C     1.32015  -1.84817   1.78218
C     2.06506  -0.99916   0.80391
C     3.43068  -1.24234   0.60385
N     4.57562  -1.48560   0.49467
N     1.46879   0.04264   0.13053
C     2.38254   1.06302  -0.42678
C     0.13230   0.17398  -0.03816
C    -0.75068  -0.99472  -0.14184
C    -2.08074  -0.93354   0.32850
C    -2.95601  -2.00366   0.15000
C    -2.53149  -3.16320  -0.50881
C    -1.21582  -3.24088  -0.97887
C    -0.33337  -2.17801  -0.78997
C    -0.44740   1.52413  -0.15838
C    -0.03790   2.57030   0.69454
C    -0.59600   3.84424   0.58231
C    -1.58112   4.10100  -0.37672
C    -2.00573   3.06934  -1.22264
C    -1.44837   1.79612  -1.11448
H     0.79961  -2.70992   1.32433
H     0.54832  -1.24893   2.29282
H     2.02089  -2.24205   2.53306
H     2.88706   1.61151   0.37858
H     1.82797   1.75040  -1.06884
H     3.13692   0.54764  -1.03586
H    -2.42475  -0.03607   0.84497
H    -3.97775  -1.93312   0.53089
H    -3.21829  -4.00073  -0.65038
H    -0.87160  -4.13886  -1.49761
H     0.68847  -2.25689  -1.16599
H     0.71339   2.37762   1.46270
H    -0.26686   4.63896   1.25609
H    -2.01916   5.09809  -0.46242
H    -2.77260   3.26061  -1.97707
H    -1.77848   1.00105  -1.78530
