13
Generated by autodE on: 2022-05-31. E = -506.057105 Ha
F    -0.26142   2.13176   0.75260
C    -0.10196   0.96000   0.14517
C     0.96116   0.16301   0.04854
F     2.19402   0.29103   0.52918
C     0.43815  -1.12051  -0.62186
C    -0.50009  -1.83094   0.38823
C    -1.56559  -1.03196   0.48586
C    -1.26202   0.15364  -0.46674
O    -0.54085  -0.53812  -1.50804
H     1.18253  -1.72874  -1.14749
H    -0.26923  -2.75874   0.91007
H    -2.45366  -1.12045   1.11023
H    -2.10779   0.73686  -0.84736
