24
Generated by autodE on: 2022-10-21. E = -518.109326 Ha
C    -3.03442  -1.44257  -0.00246
C    -1.82778  -0.68437  -0.39541
N    -0.68559  -0.78709   0.20718
C    -0.53498  -1.68872   1.36046
C     0.34691   0.18255  -0.05991
C     1.63503  -0.27741  -0.47851
C     1.82605  -1.76604  -0.73654
O     2.61719   0.47435  -0.66087
C    -0.06428   1.54508   0.16085
C     0.96437   2.65222   0.07234
O    -1.24752   1.84814   0.42619
H    -2.84588  -2.52796  -0.06911
H    -3.29586  -1.23029   1.04833
H    -3.88050  -1.18329  -0.64937
H    -1.85867  -0.00124  -1.24644
H    -0.82717  -2.71088   1.08632
H    -1.17769  -1.33594   2.18131
H     0.50626  -1.67278   1.69159
H     2.20506  -2.25375   0.17726
H     2.59351  -1.88328  -1.51463
H     0.91011  -2.28860  -1.04395
H     1.81846   2.46839   0.73932
H     1.37554   2.71895  -0.94609
H     0.47401   3.59974   0.33526
