24
Generated by autodE on: 2022-10-26. E = -518.109886 Ha
C     2.84729   1.80177   0.07631
C     1.85446   0.71450   0.21944
N     0.69560   0.72076  -0.35185
C     0.28510   1.85128  -1.19771
C    -0.29842  -0.26394   0.01020
C    -0.61217  -0.28829   1.41313
C    -1.74971  -1.14519   1.93644
O     0.02544   0.39670   2.24420
C    -0.79693  -1.01142  -1.10485
C    -1.87854  -2.06169  -0.94696
O    -0.33305  -0.81567  -2.25249
H     3.13540   1.92027  -0.98261
H     3.74338   1.58615   0.66983
H     2.41660   2.76515   0.39752
H     2.08623  -0.16597   0.82207
H    -0.68895   1.62908  -1.63872
H     0.21340   2.75680  -0.57636
H     1.02178   2.01878  -1.99397
H    -2.69664  -0.94585   1.41640
H    -1.52588  -2.21623   1.82224
H    -1.87042  -0.92479   3.00513
H    -1.59589  -2.84145  -0.22569
H    -2.82582  -1.62046  -0.60329
H    -2.03902  -2.52484  -1.92959
