21
Generated by autodE on: 2022-10-21. E = -847.064958 Ha
C     2.69000  -0.46571   1.45115
O     1.94617  -0.02638   0.31596
C     0.62655  -0.30975   0.28714
C    -0.19051  -0.16399  -0.77786
Cl    0.25535   0.47239  -2.33647
C    -1.62374  -0.26934  -0.29437
C    -1.89873   1.01658   0.55039
C    -0.96058   0.82753   1.77905
C    -0.27517  -0.55157   1.49193
C    -1.43662  -1.31371   0.82513
H     3.73961  -0.21501   1.24949
H     2.36711   0.05152   2.36867
H     2.59826  -1.55479   1.59288
H    -2.36755  -0.48420  -1.07170
H    -2.95537   1.05869   0.85547
H    -1.67611   1.92611  -0.02581
H    -1.53237   0.77294   2.71748
H    -0.21759   1.63108   1.88366
H     0.19727  -1.01832   2.36369
H    -1.14342  -2.30340   0.44694
H    -2.31570  -1.40532   1.48137
