45
Generated by autodE on: 2022-10-21. E = -1365.161190 Ha. Imaginary frequency = -380.2 cm-1
C    -0.32757  -2.87021   1.08596
O     0.34917  -1.60696   1.23506
C     0.76284  -0.98009   0.16924
C     0.93944  -1.55410  -1.20073
C     2.38550  -2.17914  -1.09998
C     3.30901  -0.93178  -1.01884
C     2.30801   0.25175  -1.07171
C     1.24333  -0.29377  -2.03546
C     1.48461   0.24970   0.22603
Cl    2.37495   0.51814   1.75446
C     0.20353   1.74615   0.29074
C     1.03788   2.96509   0.01435
N    -0.93537   1.57134  -0.44087
C    -1.20592   2.40851  -1.60772
C    -1.83969   0.52762  -0.07008
C    -2.28398   0.53404   1.30796
C    -3.10636  -0.59492   1.90614
O    -1.97876   1.46319   2.09008
C    -2.31893  -0.31549  -1.13599
C    -3.45494  -1.31017  -0.94162
O    -1.85958  -0.23044  -2.30011
H    -0.68367  -3.13953   2.08572
H     0.37750  -3.62770   0.71650
H    -1.17056  -2.76488   0.39204
H     0.16291  -2.23751  -1.55747
H     2.55969  -2.76521  -2.01359
H     2.48650  -2.85366  -0.23851
H     3.99070  -0.88398  -1.88001
H     3.91566  -0.90990  -0.10345
H     2.75060   1.22388  -1.31551
H     0.36815   0.34445  -2.16372
H     1.65910  -0.55536  -3.01885
H     0.05577   1.54392   1.35119
H     1.32157   3.05602  -1.04275
H     1.94694   2.94709   0.62716
H     0.46252   3.86421   0.29146
H    -2.21786   2.20300  -1.96780
H    -1.15194   3.47293  -1.33123
H    -0.50414   2.23218  -2.43769
H    -2.78242  -1.59306   1.59297
H    -3.01936  -0.51278   2.99806
H    -4.17046  -0.48926   1.64380
H    -3.75074  -1.65907  -1.93995
H    -3.14482  -2.18504  -0.35312
H    -4.32787  -0.86693  -0.44467
