51
Generated by autodE on: 2022-06-22. E = -1241.893159 Ha
C    -2.70682   3.24262  -1.21013
N    -2.64312   2.05215  -0.38071
C    -1.49726   1.37684  -0.22043
O    -0.43286   1.79642  -0.69908
C    -1.55075   0.00543   0.51330
C    -2.46626   0.06624   1.73507
N    -1.96856  -1.06029  -0.41542
C    -3.33226  -1.05758  -0.91835
C    -0.89967  -1.29580  -1.38759
C    -1.01273  -2.68598  -2.03604
C    -1.05559  -0.34122  -2.53220
N    -1.40011   0.32048  -3.42256
C     0.42024  -1.06858  -0.53292
C     1.20754  -2.38851  -0.33033
C     1.44853  -0.22325  -1.26771
O     1.57789  -0.27217  -2.47805
C     2.46569   0.50615  -0.44824
O     3.59558   0.69676  -1.13287
C     4.77838   1.22285  -0.51986
C     2.12688   0.96154   0.79095
O     2.92884   1.80496   1.49879
C     3.39197   1.31615   2.76138
C     0.76661   0.73714   1.32231
O     0.36900   1.42930   2.25461
C    -0.07616  -0.43456   0.82344
C    -0.03186  -1.43879   1.99456
H    -2.45043   3.00953  -2.25605
H    -2.00441   4.00838  -0.84853
H    -3.72560   3.64657  -1.17251
H    -3.50817   1.66536  -0.02254
H    -2.56649  -0.92545   2.19217
H    -2.05133   0.76308   2.47271
H    -3.47876   0.40661   1.48109
H    -3.54264  -2.01189  -1.41915
H    -4.03531  -0.97208  -0.08067
H    -3.54480  -0.24298  -1.63631
H    -1.92635  -2.75353  -2.64095
H    -0.15715  -2.85915  -2.70094
H    -1.04273  -3.46619  -1.26643
H     1.56949  -2.76832  -1.29345
H     2.08132  -2.20967   0.31013
H     0.58993  -3.16106   0.13876
H     5.57187   1.09848  -1.26778
H     5.03391   0.65561   0.38711
H     4.65958   2.28608  -0.27615
H     3.96880   2.12967   3.22032
H     2.55394   1.04623   3.42096
H     4.04489   0.43932   2.61738
H    -0.39322  -0.96334   2.91315
H    -0.64783  -2.32159   1.78496
H     0.99837  -1.76792   2.18102
