25
Generated by autodE on: 2022-06-22. E = -552.379966 Ha
C    -3.99157  -0.51853  -0.23275
N    -2.74256   0.19389  -0.06898
C    -1.55791  -0.39370  -0.37646
O    -1.53831  -1.55490  -0.83116
C    -0.34110   0.39422  -0.09983
C    -0.39558   1.64606   0.71657
N     0.85932  -0.07717  -0.52410
C     0.97096  -0.83832  -1.78642
C     2.03794   0.19729   0.10914
C     3.36829   0.11020  -0.58597
C     2.01810   0.44570   1.49076
N     2.03046   0.60428   2.65280
H    -4.00750  -1.44782   0.36016
H    -4.81347   0.12642   0.10187
H    -4.16571  -0.79383  -1.28573
H    -2.76610   1.12290   0.33031
H    -1.28537   2.23736   0.45065
H     0.48669   2.26882   0.50090
H    -0.41669   1.48933   1.80963
H     0.02065  -0.81582  -2.31781
H     1.26656  -1.87530  -1.58103
H     1.73963  -0.35857  -2.40359
H     3.62606  -0.92113  -0.88103
H     4.15354   0.46536   0.09470
H     3.40128   0.73693  -1.49303
