25
Generated by autodE on: 2022-07-27. E = -552.377863 Ha
C     0.90386   3.27052   1.08390
N     0.45077   1.92426   1.36906
C    -0.12358   1.15812   0.41307
O    -0.25931   1.58487  -0.74683
C    -0.64916  -0.16097   0.85005
C    -1.29445  -0.31415   2.19670
N    -0.68696  -1.18875  -0.01789
C    -1.63044  -2.28700   0.27316
C     0.12924  -1.33876  -1.11128
C    -0.22677  -2.22660  -2.27431
C     1.34109  -0.64090  -1.14655
N     2.38423  -0.10359  -1.19409
H     0.06614   3.92723   0.79767
H     1.38140   3.68230   1.98136
H     1.63240   3.27659   0.25769
H     0.59998   1.54145   2.29551
H    -0.86541  -1.15230   2.77239
H    -2.37901  -0.50144   2.11658
H    -1.17739   0.59937   2.79044
H    -2.64662  -1.88830   0.37930
H    -1.60785  -3.02388  -0.53044
H    -1.33479  -2.77895   1.20912
H     0.42393  -1.97686  -3.12417
H    -1.26859  -2.07875  -2.60209
H    -0.08553  -3.30141  -2.06437
