33
Generated by autodE on: 2022-10-21. E = -3392.968163 Ha
C    -2.78469  -1.30247  -0.43565
O    -1.50698  -0.75026  -0.74643
C    -0.73883  -0.30768   0.31509
C    -1.45991   0.61723   1.36588
C    -2.08889   1.77930   0.62435
C    -1.06836   2.57019   0.27771
C     0.18162   1.87171   0.79358
O    -0.30782   1.21872   1.97745
C     0.46770   0.62443  -0.11741
Br    0.41467   1.19371  -2.00074
C     1.79018  -0.15665   0.21826
C     2.92262   0.74586   0.69895
C     2.29608  -1.00306  -0.96006
N     1.40197  -1.05942   1.32746
C     0.03075  -1.50520   1.07469
C     0.01725  -2.71927   0.22484
N     0.00449  -3.69155  -0.40471
C    -0.59796  -1.88747   2.34961
N    -1.08065  -2.18520   3.36009
H    -3.46506  -0.54292  -0.01886
H    -2.71528  -2.14793   0.26892
H    -3.19972  -1.66895  -1.38346
H    -2.07864   0.09644   2.10215
H    -3.14783   1.87664   0.38926
H    -1.07869   3.48549  -0.31117
H     1.05147   2.49700   1.00765
H     2.68364   1.23231   1.65568
H     3.13277   1.52402  -0.04904
H     3.83619   0.15034   0.83936
H     1.49509  -1.54649  -1.47722
H     3.02171  -1.73281  -0.57436
H     2.79802  -0.37137  -1.70365
H     1.37581  -0.51038   2.18756
