16
Generated by autodE on: 2022-10-26. E = -397.237510 Ha
C     2.09248   2.26337  -0.16894
C     1.07210   1.24120  -0.52873
C     0.67967   1.06702  -1.95363
N     0.55269   0.51774   0.42393
C    -0.40658  -0.51250   0.42673
C    -1.05925  -1.00046  -0.71680
N    -1.65685  -1.47169  -1.62981
C    -0.72893  -1.07784   1.67209
N    -1.00923  -1.56362   2.71994
H     2.30382   2.29294   0.90892
H     1.74776   3.25811  -0.49853
H     3.02702   2.05726  -0.71779
H    -0.40411   1.21012  -2.08619
H     0.92430   0.05087  -2.30334
H     1.21154   1.79221  -2.58118
H     0.90250   0.72044   1.36319
