33
Generated by autodE on: 2022-10-21. E = -3392.910670 Ha. Imaginary frequency = -295.3 cm-1
C    -2.71598  -1.49654  -0.61145
O    -1.53338  -0.76998  -0.98010
C    -0.94891  -0.03151  -0.05320
C    -1.63114   0.55024   1.20061
C    -2.26450   1.87319   0.72749
C    -1.22921   2.69071   0.50487
C     0.02585   1.85482   0.83259
O    -0.47056   1.02803   1.89890
C     0.18523   0.77317  -0.26544
Br    0.56809   1.41543  -2.03167
C     1.95476  -0.45876   0.33061
C     3.01212   0.56359   0.62396
C     2.12336  -1.24011  -0.94414
N     1.42418  -1.06852   1.40748
C     0.30619  -1.91561   1.38480
C     0.13134  -2.95548   0.44854
N    -0.09791  -3.81496  -0.31187
C    -0.48885  -1.97612   2.54652
N    -1.17703  -2.01027   3.49294
H    -3.54692  -0.79963  -0.42545
H    -2.52963  -2.10665   0.28384
H    -2.95546  -2.14410  -1.46245
H    -2.23856  -0.11753   1.81694
H    -3.33013   2.03397   0.56980
H    -1.22338   3.71244   0.12768
H     0.93171   2.39563   1.12400
H     2.84933   1.06055   1.59104
H     3.03444   1.32053  -0.17261
H     4.00277   0.07747   0.64087
H     1.17979  -1.61594  -1.35288
H     2.77991  -2.10268  -0.73907
H     2.60854  -0.61815  -1.70421
H     1.48573  -0.52900   2.26851
