43
Generated by autodE on: 2022-06-21. E = -1162.017173 Ha
C     2.96548  -3.42078  -1.73608
N     2.42941  -2.09786  -1.48372
C     1.49470  -1.86440  -0.55989
O     1.01345  -2.71557   0.19782
C     1.00995  -0.44333  -0.46764
N     1.22978   0.42648  -1.37329
C     0.55869   1.69133  -1.01105
C     0.00348   2.39069  -2.25289
C     1.56785   2.57523  -0.39405
N     2.39327   3.27718   0.01880
C    -0.49347   1.28084   0.10074
O    -0.68642   2.38032   0.93260
C    -1.54610   2.19419   2.05549
C    -1.83249   0.85783  -0.55796
O    -2.55382   1.73415  -1.00305
C    -2.24134  -0.56593  -0.61562
C    -3.31039  -0.88506  -1.61576
C    -1.78064  -1.44252   0.32091
C    -2.27731  -2.83969   0.50693
C    -0.75810  -0.97337   1.29797
O    -0.71951  -1.35277   2.45344
C     0.22987   0.05762   0.75720
O     1.08284   0.55816   1.75106
C     2.18222  -0.26008   2.14973
H     3.96180  -3.32709  -2.18562
H     3.04479  -3.97493  -0.79135
H     2.31982  -3.99510  -2.42114
H     2.70500  -1.32112  -2.07867
H    -0.58103   3.27175  -1.95914
H    -0.63829   1.70274  -2.81762
H     0.83763   2.70405  -2.89537
H    -2.54441   1.83874   1.75184
H    -1.64973   3.17725   2.53266
H    -1.10825   1.48751   2.77658
H    -3.10781  -0.36706  -2.56503
H    -3.38243  -1.96220  -1.80722
H    -4.29174  -0.52725  -1.26111
H    -1.59594  -3.54300  -0.00174
H    -2.26322  -3.09489   1.57607
H    -3.28968  -2.98588   0.11211
H     2.95632  -0.29642   1.36414
H     2.61094   0.21762   3.04044
H     1.86473  -1.28102   2.40358
