17
Generated by autodE on: 2022-06-21. E = -472.479152 Ha
C    -2.69253   0.97121  -0.39921
N    -2.66532  -0.31592   0.27244
C    -1.60216  -1.13401   0.31909
O    -1.53863  -2.19702   0.94146
C    -0.44920  -0.74772  -0.52365
N     0.61981  -0.24940  -0.27551
C     1.80846   0.23107  -0.09805
C     2.95788  -0.63538   0.34343
C     2.00142   1.62094  -0.33242
N     2.19834   2.75659  -0.51343
H    -2.08472   0.93269  -1.31566
H    -2.30875   1.78342   0.23903
H    -3.72501   1.20778  -0.68705
H    -3.45122  -0.58473   0.86058
H     3.77750  -0.59543  -0.39178
H     3.35353  -0.29249   1.31291
H     2.62134  -1.67556   0.44721
