26
Generated by autodE on: 2022-06-21. E = -689.460869 Ha
C    -2.30303  -2.22332   0.56884
O    -1.74232  -1.51001  -0.53840
C    -0.70703  -0.66932  -0.24456
C    -0.82100   0.68864  -0.26944
O    -1.89292   1.44053  -0.51817
C    -3.19109   0.88457  -0.75249
C     0.38966   1.54578  -0.00956
O     0.26911   2.76265  -0.04527
C     1.69204   0.90021   0.29551
C     2.86387   1.79234   0.56681
C     1.79185  -0.45187   0.32457
C     3.08186  -1.14542   0.62919
C     0.60111  -1.30339   0.02526
O     0.69854  -2.52888  -0.01050
H    -3.11509  -2.84178   0.16403
H    -2.71465  -1.52227   1.31388
H    -1.55502  -2.87139   1.04896
H    -3.85111   1.74806  -0.90418
H    -3.53533   0.30844   0.11822
H    -3.19413   0.25063  -1.64837
H     2.58702   2.84960   0.48058
H     3.26327   1.61301   1.57880
H     3.68547   1.58215  -0.13743
H     2.95799  -2.23454   0.62257
H     3.85423  -0.87223  -0.10921
H     3.46737  -0.83501   1.61426
