45
Generated by autodE on: 2022-06-19. E = -864.639938 Ha
C    -2.36294  -2.52104  -0.29424
C    -1.17706  -2.45192  -0.91611
C    -0.84945  -3.34129  -2.08581
C    -0.08697  -1.47735  -0.51770
C    -0.58227  -0.13344   0.04274
C    -1.16075   0.76775  -1.00817
C    -2.07047   1.73846  -0.81239
C    -2.63916   2.09511   0.53358
C    -2.54185   2.59941  -1.95186
C     0.70022   0.42500   0.81385
C     0.30905   0.83329   2.17551
N     0.01641   1.09252   3.26898
C     1.26600   1.68187   0.10830
O     0.82534   2.80360   0.37609
N     2.20407   1.40827  -0.80116
C     2.83750   2.40162  -1.64088
N     1.63871  -0.69090   0.81175
C     0.94518  -1.96801   0.53542
C     0.29078  -2.55291   1.79443
C     1.96009  -2.96170  -0.02498
H    -2.62750  -1.87001   0.54242
H    -3.11913  -3.24605  -0.61017
H    -1.66622  -4.04346  -2.30790
H    -0.65680  -2.73193  -2.98599
H     0.06935  -3.92184  -1.90457
H     0.50171  -1.25200  -1.42215
H    -1.33594  -0.31883   0.81569
H    -0.76956   0.62167  -2.02095
H    -2.47684   1.31927   1.29423
H    -3.72093   2.29537   0.46228
H    -2.16595   3.02176   0.90301
H    -3.63756   2.53111  -2.06968
H    -2.06876   2.32089  -2.90507
H    -2.31804   3.66199  -1.74988
H     2.49800   0.43236  -0.82764
H     3.89087   2.55529  -1.35606
H     2.30261   3.35343  -1.53426
H     2.80539   2.09030  -2.69559
H     2.21325  -0.72880   1.65257
H    -0.20413  -3.50958   1.57381
H    -0.46109  -1.87884   2.23015
H     1.06378  -2.73503   2.55805
H     2.77427  -3.11981   0.70038
H     1.49249  -3.93829  -0.21650
H     2.39922  -2.58923  -0.96284
