23
Generated by autodE on: 2022-06-19. E = -351.521381 Ha
C     3.59111   0.89795  -0.77390
C     2.56702   0.25461  -0.17124
C     2.81306  -0.80558   0.87173
C     1.18788   0.58154  -0.52806
C     0.07794   0.00736   0.00028
C    -1.27036   0.36744  -0.38824
C    -2.42529  -0.16359   0.08707
C    -3.75736   0.31800  -0.41423
C    -2.49593  -1.24880   1.12365
H     3.40957   1.66718  -1.53090
H     4.63209   0.67244  -0.52611
H     2.37707  -1.77151   0.56695
H     2.34060  -0.53650   1.83107
H     3.88851  -0.95167   1.04531
H     1.06159   1.35999  -1.29017
H     0.19655  -0.76961   0.76032
H    -1.35052   1.15477  -1.14759
H    -4.33294  -0.51436  -0.85777
H    -4.37269   0.70381   0.41847
H    -3.65594   1.11182  -1.16879
H    -1.51298  -1.59277   1.47034
H    -3.04455  -2.12091   0.72607
H    -3.06879  -0.90218   2.00193
