45
Generated by autodE on: 2022-06-19. E = -864.586130 Ha. Imaginary frequency = -383.9 cm-1
C    -2.22123  -2.66213   0.63742
C    -1.35421  -2.74868  -0.38924
C    -1.20328  -4.02993  -1.16933
C    -0.47236  -1.63811  -0.83419
C    -0.85939  -0.28477  -0.63175
C    -0.53705   0.72894  -1.61118
C    -1.13019   1.94190  -1.75640
C    -2.26421   2.43534  -0.90324
C    -0.68214   2.88911  -2.83073
C     0.78084   0.30674   0.98085
C    -0.03748   0.05417   2.10401
N    -0.77132  -0.08097   3.00527
C     1.11203   1.70579   0.62774
O     2.02899   1.94285  -0.17709
N     0.35880   2.68265   1.16963
C     0.51366   4.06669   0.76875
N     1.67086  -0.61568   0.46820
C     1.36796  -1.92680   0.21481
C     0.98287  -2.79614   1.38361
C     2.30891  -2.58094  -0.76495
H    -2.33079  -1.75451   1.23666
H    -2.83930  -3.51899   0.91998
H    -1.87823  -4.81571  -0.80038
H    -1.40988  -3.86410  -2.24067
H    -0.16842  -4.40614  -1.10806
H     0.01465  -1.82434  -1.79660
H    -1.69932  -0.08717   0.03442
H     0.27312   0.47612  -2.30493
H    -2.04337   3.44447  -0.51762
H    -3.18322   2.53360  -1.50944
H    -2.48776   1.78321  -0.04925
H    -1.51866   3.15022  -3.50392
H     0.13684   2.47337  -3.43578
H    -0.33900   3.84248  -2.38919
H    -0.46113   2.42497   1.70876
H    -0.23418   4.67191   1.29508
H     1.51542   4.44317   1.02820
H     0.37521   4.19441  -0.31639
H     2.23432  -0.15269  -0.25001
H     0.70607  -3.80025   1.04057
H     0.15340  -2.40039   1.97725
H     1.86484  -2.89436   2.04081
H     3.24914  -2.86899  -0.26287
H     2.55112  -1.90696  -1.60043
H     1.85887  -3.49611  -1.17195
