43
Generated by autodE on: 2022-10-07. E = -1389.818040 Ha
C     4.44085   1.55913  -0.38480
O     3.28316   0.75458  -0.62586
C     2.48854   0.51414   0.43304
O     2.81514   0.75921   1.57531
C     1.29838  -0.32752  -0.03431
C     1.91724  -1.65835  -0.58108
C     2.53813  -2.57943   0.43460
O     1.84347  -1.95927  -1.75838
C     0.47571   0.38309  -1.12331
C     0.36716   1.91436  -0.91283
O     1.10839   2.44014  -0.03884
O    -0.41486   2.53247  -1.67278
C    -0.85374  -0.39905  -1.06053
C    -2.06485   0.21731  -1.78988
O    -2.03461   0.14164  -3.04252
O    -2.99712   0.70029  -1.09404
C    -1.02881  -0.73887   0.44713
C    -1.63207  -2.16519   0.55086
C    -2.95702  -2.42932  -0.11237
O    -1.00355  -3.06222   1.08403
C    -1.94330   0.24257   1.20685
O    -2.92069  -0.07943   1.85665
O    -1.43393   1.46931   1.20673
C    -2.20162   2.51001   1.81364
N     0.31461  -0.67681   0.98033
C     0.51953  -0.70537   2.41045
H     5.08966   1.09835   0.37394
H     4.96966   1.62892  -1.34269
H     4.13641   2.56165  -0.04841
H     1.73435  -3.03220   1.03538
H     3.09624  -3.37304  -0.07894
H     3.19718  -2.03284   1.12486
H     0.92948   0.23179  -2.11105
H    -0.66077  -1.34811  -1.58045
H    -3.65549  -1.59458   0.00433
H    -3.38362  -3.36262   0.27915
H    -2.77657  -2.55706  -1.19356
H    -1.59380   3.41806   1.72519
H    -2.40052   2.28525   2.87129
H    -3.15324   2.63557   1.27586
H     0.49879   0.29660   2.87766
H    -0.27770  -1.30837   2.86806
H     1.47410  -1.17938   2.67309
