33
Generated by autodE on: 2022-10-14. E = -934.714914 Ha
C     4.46847   1.04110  -0.81222
O     3.06910   0.73262  -0.94758
C     2.42025   0.37267   0.15431
O     2.91008   0.32434   1.26241
C     1.01433  -0.01477  -0.18266
C     0.79457  -0.77358  -1.47933
C     1.81897  -1.79467  -1.88308
O    -0.13581  -0.45260  -2.19576
N     0.00749   0.38943   0.55777
C     0.23482   1.37909   1.63917
C    -1.23779  -0.25594   0.51130
C    -1.21433  -1.69460   0.41613
C    -2.46099  -2.49041   0.71671
O    -0.17052  -2.30659   0.11406
C    -2.45691   0.52921   0.60072
O    -3.57622   0.10152   0.85189
O    -2.24675   1.83306   0.30103
C    -3.37691   2.70334   0.40780
H     5.01061   0.16335  -0.43305
H     4.81490   1.30248  -1.81781
H     4.60408   1.88770  -0.12497
H     2.40269  -2.16296  -1.02964
H     1.30217  -2.62982  -2.37510
H     2.50487  -1.33802  -2.61388
H     0.78300   2.24149   1.24213
H    -0.72876   1.69950   2.03544
H     0.81625   0.89467   2.43150
H    -2.91298  -2.20611   1.67571
H    -2.19425  -3.55529   0.71661
H    -3.21665  -2.30397  -0.06220
H    -4.16739   2.40459  -0.29618
H    -3.78213   2.69549   1.43060
H    -3.01051   3.70595   0.15673
