33
Generated by autodE on: 2022-10-07. E = -934.713569 Ha
C     3.64363   1.84661  -1.43483
O     2.43209   1.17611  -1.07595
C     2.45917   0.44897   0.06617
O     3.43755   0.44678   0.80135
C     1.19507  -0.22690   0.31263
C     0.79871  -0.74199   1.60730
C     1.82649  -0.86362   2.70692
O    -0.36591  -1.11809   1.82733
N     0.30611  -0.42817  -0.75066
C     0.84786  -1.03913  -1.98909
C    -0.99508  -0.28142  -0.60646
C    -1.97393  -0.89841  -1.57357
C    -3.10350  -0.04017  -2.06823
O    -1.83007  -2.05781  -1.92054
C    -1.54313   0.61117   0.46798
O    -0.99722   1.61736   0.86539
O    -2.75005   0.20647   0.84260
C    -3.41731   0.99871   1.83887
H     3.92204   2.58517  -0.66884
H     3.43827   2.35219  -2.38601
H     4.46688   1.12758  -1.55972
H     1.35720  -1.37998   3.55442
H     2.15462   0.13845   3.02364
H     2.72369  -1.40294   2.37617
H     1.91994  -0.84603  -2.03596
H     0.35323  -0.60701  -2.86614
H     0.66947  -2.11923  -1.94770
H    -3.99620  -0.22586  -1.45004
H    -3.33533  -0.33422  -3.10150
H    -2.86698   1.03211  -2.01831
H    -3.56192   2.02584   1.47569
H    -4.38405   0.51273   2.00978
H    -2.82416   1.01096   2.76415
