43
Generated by autodE on: 2022-10-07. E = -1389.735496 Ha. Imaginary frequency = -280.6 cm-1
C     4.52298   0.86295  -0.60000
O     3.36658   0.01840  -0.52134
C     2.51587   0.25414   0.48647
O     2.74475   1.06360   1.35991
C     1.26348  -0.55338   0.27087
C     1.64311  -1.88748  -0.43731
C     2.43381  -2.81167   0.46415
O     1.56218  -2.07208  -1.63446
C     0.40997   0.56261  -1.40978
C     0.82748   1.98849  -1.06829
O     1.66202   2.49348  -1.87118
O     0.38801   2.53396  -0.02562
C    -0.89879   0.09524  -1.50284
C    -2.17564   0.92038  -1.48726
O    -2.08781   2.16875  -1.60470
O    -3.26386   0.27676  -1.42627
C    -1.03496  -0.90739   0.84952
C    -1.23409  -2.24022   0.30794
C    -2.59598  -2.71104  -0.13199
O    -0.26936  -3.01495   0.19793
C    -2.19979  -0.13474   1.33840
O    -3.29078  -0.60716   1.61213
O    -1.95994   1.18106   1.38997
C    -3.06151   2.03464   1.70578
N     0.24281  -0.46890   1.17793
C     0.40633   0.28936   2.44315
H     5.12776   0.77954   0.31373
H     5.09178   0.51041  -1.46773
H     4.20794   1.90534  -0.74871
H     2.11631  -2.74712   1.51177
H     2.33546  -3.84165   0.09776
H     3.49397  -2.51598   0.39950
H     1.13229   0.02579  -2.02539
H    -1.02490  -0.88621  -1.97056
H    -3.18619  -3.01544   0.74524
H    -2.45422  -3.58196  -0.78644
H    -3.14759  -1.91733  -0.65067
H    -2.67995   3.05744   1.60771
H    -3.41749   1.85453   2.73104
H    -3.88270   1.86677   0.99466
H     0.45009   1.36657   2.26838
H    -0.43626   0.04301   3.09521
H     1.32722  -0.04357   2.93144
