26
Generated by autodE on: 2022-05-26. E = -1000.545906 Ha
C     3.67973   1.78625  -0.03578
N     2.56524   1.07892   0.57213
C     2.05352  -0.01388   0.01183
O     2.43906  -0.53470  -1.02589
C     0.80400  -0.63123   0.76174
C     0.96445  -2.08786   0.78002
N     1.09435  -3.23798   0.82936
N     0.68162  -0.14058   2.13284
C    -0.40282   0.55366   2.18530
C    -1.14810   0.60517   0.91500
C    -2.40123   1.39376   0.67618
C    -3.25444   1.67336   1.87538
O    -2.66865   1.78805  -0.44512
C    -0.45615  -0.16290   0.04112
C    -0.76789  -0.47595  -1.39738
F    -0.15343  -1.60566  -1.78832
F    -2.07779  -0.65277  -1.60257
F    -0.35004   0.50736  -2.21129
H     3.45327   2.03319  -1.08319
H     3.85329   2.71291   0.52332
H     4.59672   1.17676  -0.01400
H     2.20756   1.38038   1.47357
H    -0.71190   1.06565   3.10041
H    -4.19089   2.15350   1.56496
H    -2.70830   2.34010   2.56435
H    -3.45947   0.74176   2.42723
