14
Generated by autodE on: 2022-05-26. E = -433.140573 Ha
C     2.45864   1.18412  -1.09415
N     1.72488   0.51587  -0.47787
C     0.69126  -0.20540  -0.03510
C     0.93896  -1.34187   0.76065
N     1.11033  -2.31392   1.38800
C    -0.64090   0.42162  -0.21226
O    -0.76401   1.45247  -0.88694
N    -1.67517  -0.23180   0.36476
C    -3.05036   0.20631   0.25676
H     2.99456   2.09952  -1.33700
H    -1.48278  -1.08395   0.88185
H    -3.50233   0.33903   1.25224
H    -3.66244  -0.52287  -0.29908
H    -3.07780   1.16505  -0.27375
