45
Generated by autodE on: 2022-06-20. E = -1109.121714 Ha
C     5.53998  -1.14076   0.11121
C     4.43881  -0.52912  -0.36932
C     4.51966   0.57217  -1.39309
C     3.11464  -0.92179   0.12495
C     1.94838  -0.39815  -0.29171
C     0.62603  -0.77782   0.29026
C    -0.14346   0.44641   0.86521
C     0.67782   1.56343   1.49036
O     1.24035   2.37776   0.75752
N     0.77864   1.53029   2.82195
C     1.57640   2.49935   3.55059
O    -1.13922  -0.08366   1.79028
C    -2.11605  -0.59940   1.00031
O    -3.09620  -1.15270   1.41333
C    -1.62953  -0.32069  -0.42852
C    -2.73298  -0.22668  -1.45895
O    -3.40568  -1.22706  -1.72060
N    -2.89815   0.97293  -2.02698
C    -3.93416   1.22183  -3.01134
O    -0.92314   0.91075  -0.20606
C    -0.45515  -1.33437  -0.72719
C    -0.03616  -1.17812  -2.19155
C    -0.80995  -2.78989  -0.43246
H     6.54184  -0.86408  -0.22916
H     5.46419  -1.93566   0.85956
H     3.97356   0.30126  -2.31206
H     4.05210   1.49480  -1.01030
H     5.56219   0.79316  -1.66169
H     3.09912  -1.69502   0.90199
H     1.93726   0.37796  -1.05896
H     0.77820  -1.49255   1.10891
H     0.21352   0.86141   3.33626
H     2.55825   2.61645   3.07063
H     1.08772   3.48688   3.58006
H     1.71724   2.14318   4.57790
H    -2.33094   1.74503  -1.69058
H    -4.92568   1.32370  -2.53985
H    -3.70179   2.14940  -3.54860
H    -3.98046   0.39134  -3.72950
H     0.12892  -0.12679  -2.46252
H    -0.81385  -1.59141  -2.85052
H     0.89560  -1.73125  -2.37741
H    -1.65226  -3.11815  -1.05762
H     0.05858  -3.42793  -0.65599
H    -1.07839  -2.94980   0.62243
