23
Generated by autodE on: 2022-06-20. E = -351.521383 Ha
C    -3.62552   0.82162  -0.69269
C    -2.57499   0.21153  -0.10104
C    -2.77496  -0.81696   0.98268
C    -1.21200   0.54493  -0.51002
C    -0.07811   0.00444   0.00281
C     1.25195   0.37066  -0.43927
C     2.42938  -0.12545   0.01821
C     3.73731   0.35741  -0.54196
C     2.54994  -1.17069   1.09061
H    -3.47726   1.56788  -1.47933
H    -4.65539   0.59094  -0.40628
H    -2.27797  -0.51032   1.91806
H    -2.33463  -1.78659   0.69648
H    -3.84264  -0.97132   1.19320
H    -1.12012   1.29904  -1.30101
H    -0.16177  -0.74807   0.79158
H     1.29624   1.13130  -1.22817
H     4.31250  -0.48206  -0.97243
H     4.37160   0.78326   0.25627
H     3.59987   1.12091  -1.32169
H     1.58428  -1.51386   1.48354
H     3.14758  -0.78452   1.93523
H     3.09675  -2.05001   0.70663
