45
Generated by autodE on: 2022-06-20. E = -1109.063552 Ha. Imaginary frequency = -341.2 cm-1
C     5.32456   0.65035   1.05879
C     4.29022   0.58514   0.19324
C     4.26801   1.38793  -1.08041
C     3.13084  -0.24713   0.51157
C     2.03394  -0.38935  -0.26407
C     0.84617  -1.12444   0.17479
C    -0.34931   0.47705   0.89603
C     0.62509   1.39036   1.57636
O     1.09865   2.34279   0.95784
N     0.95837   1.03605   2.82240
C     2.00862   1.73072   3.54514
O    -1.27326  -0.20686   1.60930
C    -2.27101  -0.61639   0.69098
O    -3.16760  -1.37266   1.01133
C    -1.89359   0.01922  -0.52005
C    -2.58854   0.10190  -1.80343
O    -2.19151   0.84425  -2.71240
N    -3.65666  -0.71627  -1.91972
C    -4.42706  -0.78291  -3.14478
O    -0.87833   0.90170  -0.25242
C    -0.04616  -1.74461  -0.72959
C     0.07461  -1.49919  -2.20444
C    -0.79353  -2.97162  -0.30955
H     5.32152   0.07111   1.98717
H     6.19542   1.28163   0.86158
H     5.18993   1.97400  -1.20041
H     3.40926   2.07983  -1.08167
H     4.15200   0.73660  -1.96239
H     3.15863  -0.75753   1.48070
H     1.98334   0.11069  -1.23364
H     0.92556  -1.59860   1.15848
H     0.52605   0.21358   3.23389
H     2.96207   1.67813   2.99559
H     1.75253   2.79134   3.68968
H     2.13297   1.25754   4.52594
H    -3.93331  -1.27187  -1.11358
H    -5.18408  -1.56997  -3.04423
H    -3.78095  -1.01933  -4.00446
H    -4.93562   0.17194  -3.35684
H     0.18430  -0.43337  -2.44778
H    -0.78803  -1.90313  -2.75098
H     0.97932  -2.01342  -2.57809
H    -1.78311  -3.03317  -0.78531
H    -0.22045  -3.85670  -0.64437
H    -0.90569  -3.04166   0.78112
