25
Generated by autodE on: 2022-06-04. E = -701.723426 Ha
C    -2.17168   3.31360  -1.01535
N    -1.72290   1.97503  -0.69267
C    -0.43644   1.71810  -0.41080
O     0.43472   2.61708  -0.42920
C    -0.02092   0.33671  -0.07022
N     1.32040   0.30223   0.16539
C     2.25914  -0.60185   0.36472
C     3.65722  -0.15337   0.67168
C     2.05473  -1.99819   0.20129
N     2.07682  -3.14893   0.01407
C    -0.86008  -0.79244   0.26299
O    -0.48610  -1.77582   0.89126
O    -2.13880  -0.65808  -0.15598
C    -3.05865  -1.68463   0.23589
H    -3.24561   3.28137  -1.23573
H    -1.64236   3.71268  -1.89526
H    -2.00420   4.01097  -0.17847
H    -2.38302   1.20457  -0.65087
H     1.66136   1.28394   0.12564
H     3.72499   0.94317   0.63070
H     3.95327  -0.48496   1.68070
H     4.37282  -0.58791  -0.04385
H    -3.12570  -1.74883   1.33170
H    -2.74507  -2.65803  -0.16779
H    -4.02824  -1.39522  -0.18567
