45
Generated by autodE on: 2022-06-04. E = -3790.945378 Ha. Imaginary frequency = -307.0 cm-1
C     1.14476   4.13816  -2.14316
N     1.38104   3.02278  -1.24848
C     1.41858   1.76389  -1.70470
O     1.31689   1.48913  -2.91258
C     1.52485   0.63801  -0.71502
C     2.19787   0.76633   0.59207
O     2.85358  -0.11841   1.10872
O     2.03996   1.97240   1.15075
C     2.62078   2.17275   2.44773
N     1.52419  -0.56044  -1.35758
C     1.13659  -1.77879  -0.92238
C     0.91717  -2.83599  -1.97282
C     1.50992  -2.30914   0.35434
N     1.73651  -2.92795   1.31335
C    -0.99432  -1.06243  -0.22942
Br   -1.55896  -2.28985   1.11266
C    -1.77995  -1.16448  -1.56097
C    -3.18234  -0.58373  -1.29386
C    -2.98487   0.72961  -1.13824
C    -1.46973   0.92708  -1.31130
O    -1.16524  -0.09097  -2.28056
C    -0.80115   0.31758  -0.04436
C    -0.68910   1.01345   1.25465
O    -0.23963   0.45369   2.26249
N    -1.11177   2.30346   1.25709
C    -0.90919   3.18927   2.38477
H     1.91718   4.18986  -2.92587
H     1.16723   5.06696  -1.56056
H     0.16427   4.05240  -2.63971
H     1.42844   3.16904  -0.24429
H     3.70544   2.00078   2.41296
H     2.40684   3.21355   2.71325
H     2.15576   1.48983   3.17134
H     1.32818  -0.39583  -2.35507
H     0.52777  -2.38229  -2.89469
H     0.20143  -3.58584  -1.60838
H     1.86036  -3.35784  -2.20436
H    -1.72195  -2.11504  -2.09886
H    -4.09705  -1.16766  -1.20274
H    -3.69168   1.51588  -0.87620
H    -1.13258   1.91464  -1.63992
H    -1.33924   2.73543   0.36860
H     0.00952   3.78926   2.27058
H    -1.76241   3.87545   2.48441
H    -0.82324   2.59306   3.30081
