23
Generated by autodE on: 2022-10-22. E = -704.261514 Ha
C     2.06949  -2.14502  -1.07170
C     2.27284  -0.65992  -1.08994
O     3.26271  -0.11161  -1.55618
C     1.19759   0.19049  -0.52457
C     1.41934   1.58724  -0.43393
N     1.75368   2.69795  -0.32005
O     0.18146  -0.44217  -0.01121
C    -0.99121  -0.14263   0.50476
C    -1.61410   1.16076   0.21091
C    -2.89400   1.55224   0.88412
O    -1.08482   1.87000  -0.64349
C    -1.63805  -1.30298   1.15459
C    -0.89581  -2.61261   1.13525
O    -2.72753  -1.17758   1.70237
H     1.92976  -2.49816  -0.03841
H     2.94492  -2.62967  -1.52089
H     1.16047  -2.41291  -1.63243
H    -3.70375   0.86677   0.59241
H    -3.14405   2.57770   0.58233
H    -2.79638   1.48208   1.97726
H    -1.51243  -3.37306   1.62987
H    -0.67530  -2.91933   0.10159
H     0.06831  -2.51573   1.65819
