23
Generated by autodE on: 2022-10-26. E = -704.261509 Ha
C     1.94117   0.76202   2.38291
C     2.23112   0.97560   0.92774
O     3.25062   1.50389   0.50414
C     1.20737   0.53537  -0.05033
C     1.50945   0.62702  -1.43180
N     1.90813   0.65705  -2.52660
O     0.15623  -0.04894   0.44984
C    -0.99766  -0.51079   0.01815
C    -1.54373  -0.04106  -1.26822
C    -2.80015  -0.64424  -1.81792
O    -0.97302   0.89487  -1.82647
C    -1.71135  -1.30455   1.04183
C    -1.04695  -1.46966   2.38256
O    -2.79271  -1.81957   0.78087
H     1.76987  -0.30628   2.58569
H     1.02352   1.29852   2.67078
H     2.79057   1.12748   2.97280
H    -3.64696  -0.44189  -1.14525
H    -2.70697  -1.73756  -1.89179
H    -2.99167  -0.20419  -2.80526
H    -0.84386  -0.48912   2.83919
H    -1.70749  -2.05746   3.03164
H    -0.07917  -1.98304   2.27163
