23
Generated by autodE on: 2022-10-22. E = -650.084113 Ha
C    -3.46057  -1.35421  -0.09783
O    -2.04290  -1.21002  -0.21754
C    -1.54278   0.03922  -0.05149
O    -2.26928   0.98952   0.20632
C    -0.10695   0.03945  -0.25383
C     0.91100   0.87692   0.10345
O     1.05563   1.99234   0.78624
C    -0.05939   2.58597   1.46827
C     2.20803   0.18543  -0.37465
C     2.41508  -1.02906   0.55507
C     1.43957  -1.87707   0.21445
C     0.65362  -1.15469  -0.89921
O     1.72376  -0.45074  -1.56118
H    -3.67380  -2.41543  -0.27405
H    -3.98119  -0.73632  -0.84475
H    -3.79988  -1.06439   0.90780
H     0.34448   3.45532   2.00049
H    -0.48412   1.86695   2.18322
H    -0.82953   2.89346   0.75101
H     3.05706   0.85388  -0.55310
H     3.16584  -1.09741   1.34114
H     1.17357  -2.84211   0.64474
H     0.07306  -1.76949  -1.59268
