46
Generated by autodE on: 2022-10-22. E = -1354.359078 Ha. Imaginary frequency = -227.2 cm-1
C     4.48696   0.01200  -0.22044
O     3.13914  -0.08245  -0.70438
C     2.21000  -0.49129   0.17119
O     2.46319  -0.80061   1.32217
C     0.88074  -0.50417  -0.45543
C     0.73907  -0.56734  -1.99622
C     1.21925  -1.97649  -2.40623
C     0.26302  -2.81110  -1.98546
C    -0.79987  -1.89539  -1.33595
O    -0.68256  -0.71976  -2.13336
C    -0.13711  -1.39413  -0.03553
O    -0.14218  -2.00751   1.11865
C    -1.02807  -3.13219   1.32267
C    -1.87863   0.54388   0.48804
C    -2.48701   0.95977  -0.78340
C    -3.61909   0.17165  -1.37771
O    -2.09655   2.00138  -1.31067
C    -2.60667  -0.16168   1.55127
C    -2.05122  -0.08951   2.94941
O    -3.61587  -0.82093   1.29639
O    -0.82923   1.25507   0.96089
C     0.28312   1.63038   0.37624
C     0.41779   2.22471  -0.92051
N     0.75245   2.71547  -1.92140
C     1.37992   1.99717   1.34356
C     1.13803   1.71933   2.79350
O     2.41292   2.47201   0.90201
H     5.08197   0.38645  -1.06113
H     4.53835   0.71165   0.62515
H     4.85233  -0.97600   0.09432
H     1.11928   0.28581  -2.56303
H     2.17321  -2.19416  -2.88413
H     0.21058  -3.89793  -2.02083
H    -1.82471  -2.26809  -1.26697
H    -0.69490  -3.97445   0.70044
H    -0.94192  -3.38803   2.38390
H    -2.06093  -2.85599   1.08150
H    -4.54772   0.42562  -0.84121
H    -3.48531  -0.91140  -1.28250
H    -3.72440   0.46373  -2.43118
H    -1.95236   0.95454   3.28177
H    -1.04590  -0.53609   2.97834
H    -2.72068  -0.63901   3.62275
H     0.89549   0.65705   2.93455
H     0.27721   2.30446   3.15235
H     2.03852   1.98260   3.36134
