45
Generated by autodE on: 2022-06-21. E = -1109.121927 Ha
C     5.27221  -1.44734  -1.59529
C     4.42429  -0.85560  -0.72982
C     4.89581  -0.28272   0.58042
C     2.99873  -0.76419  -1.06116
C     2.05587  -0.19349  -0.29004
C     0.61706  -0.12803  -0.67464
C    -0.37189  -0.77070   0.36041
C    -0.34863  -2.27946   0.42172
O     0.67292  -2.83779   0.82763
N    -1.46155  -2.89108  -0.00357
C    -1.61373  -4.33207  -0.05030
O    -1.62676  -0.19299  -0.02635
C    -1.23704   1.14937   0.13834
C    -2.37669   2.14961   0.02354
O    -2.16830   3.33887   0.27034
N    -3.54871   1.64482  -0.36940
C    -4.71660   2.48659  -0.55237
O    -0.73545   1.17000   1.50717
C    -0.15049  -0.04081   1.69094
O     0.42366  -0.36703   2.69220
C    -0.02429   1.31580  -0.82920
C    -0.52578   1.51142  -2.26149
C     0.89910   2.46537  -0.43085
H     6.34073  -1.53381  -1.37903
H     4.91536  -1.86038  -2.54369
H     5.97837  -0.42137   0.70975
H     4.67315   0.79540   0.64483
H     4.37933  -0.76164   1.42892
H     2.69806  -1.20651  -2.01804
H     2.33452   0.25097   0.66890
H     0.46106  -0.68052  -1.61086
H    -2.23491  -2.30792  -0.30910
H    -2.49198  -4.64753   0.53267
H    -1.73832  -4.68120  -1.08709
H    -0.71733  -4.79767   0.37541
H    -3.62491   0.64137  -0.50554
H    -5.51162   1.89339  -1.01898
H    -4.47662   3.34164  -1.20145
H    -5.08143   2.87917   0.41021
H     0.32329   1.44843  -2.95866
H    -1.25586   0.73820  -2.54100
H    -0.99292   2.50069  -2.38432
H     0.36072   3.42056  -0.50444
H     1.76158   2.49933  -1.11223
H     1.27895   2.36544   0.59396
