23
Generated by autodE on: 2022-06-21. E = -351.515967 Ha
C     2.83790   1.07484   0.73121
C     2.55967  -0.13547   0.20432
C     3.63207  -1.18461   0.04387
C     1.22251  -0.53265  -0.26522
C     0.04543   0.06425   0.04273
C    -1.23383  -0.37887  -0.47112
C    -2.45231   0.15581  -0.20309
C    -3.69524  -0.41857  -0.82197
C    -2.68541   1.33120   0.70303
H     3.84450   1.31613   1.08406
H     2.07912   1.85743   0.81965
H     3.73932  -1.46967  -1.01706
H     4.60784  -0.83336   0.40893
H     3.36545  -2.10679   0.58831
H     1.19377  -1.41630  -0.91480
H     0.05331   0.92174   0.72284
H    -1.19804  -1.23912  -1.15057
H    -4.40606  -0.74439  -0.04138
H    -4.22574   0.34674  -1.41667
H    -3.47688  -1.27671  -1.47433
H    -3.19615   2.14146   0.15331
H    -1.76720   1.74179   1.14219
H    -3.36337   1.04763   1.52746
