14
Generated by autodE on: 2022-05-29. E = -622.674903 Ha
C    -2.93814   0.84140   1.13949
N    -2.86231  -0.59111   0.92029
C    -1.81739  -1.29829   0.46206
O    -1.82187  -2.52175   0.29976
C    -0.60410  -0.54064   0.13982
C     0.44064  -0.00849  -0.15757
C     1.69780   0.65874  -0.50630
F     2.39009  -0.04059  -1.41792
F     1.47580   1.87946  -1.01757
F     2.48134   0.80691   0.57265
H    -3.72700   1.28800   0.51526
H    -3.16154   1.05947   2.19479
H    -1.98268   1.31391   0.88212
H    -3.68718  -1.14989   1.13352
