20
Generated by autodE on: 2022-07-26. E = -565.999199 Ha
C    -0.74128   2.19688   2.50217
N    -0.79844   1.65549   1.15870
C    -0.26591   0.45016   0.86633
O     0.36535  -0.21194   1.70220
C    -0.53333  -0.06787  -0.49690
C    -1.67016   0.38273  -1.19750
N    -2.61330   0.79884  -1.75005
N     0.14922  -1.14228  -1.00113
C    -0.54488  -1.97486  -2.00983
C     1.38649  -1.51095  -0.68231
C     2.31701  -0.68905  -0.01840
N     3.16968  -0.04540   0.45127
H    -1.32598   1.58915   3.21242
H    -1.14998   3.21437   2.49023
H     0.29720   2.23509   2.86459
H    -1.31293   2.16419   0.44716
H    -0.68009  -1.38146  -2.92354
H     0.07013  -2.85109  -2.23391
H    -1.52171  -2.27913  -1.61572
H     1.73456  -2.47503  -1.05193
