20
Generated by autodE on: 2022-05-29. E = -566.002786 Ha
C     3.83151  -0.14434  -0.45309
N     2.59668  -0.23835   0.29908
C     1.40120  -0.04210  -0.30058
O     1.32946   0.22552  -1.51351
C     0.20943  -0.16382   0.56440
C     0.37635  -0.51812   1.91935
N     0.58055  -0.81607   3.03125
N    -1.06836   0.05210   0.11368
C    -2.14569  -0.08056   1.12266
C    -1.38881   0.36799  -1.13751
C    -2.71588   0.58879  -1.54820
N    -3.78565   0.78740  -1.97356
H     3.84482  -0.85948  -1.29075
H     3.97506   0.86566  -0.87016
H     4.66911  -0.37069   0.21753
H     2.64475  -0.43640   1.29259
H    -2.13802  -1.10289   1.51913
H    -1.96462   0.63680   1.93188
H    -3.11217   0.12622   0.65632
H    -0.57441   0.45421  -1.85643
