45
Generated by autodE on: 2022-06-19. E = -993.885154 Ha
C    -3.41565  -2.23561  -0.57281
N    -2.48160  -1.14954  -0.33771
C    -2.87463  -0.00459   0.26458
C    -2.05613   1.04205   0.58756
C    -2.66161   2.20314   1.24648
N    -1.81081   3.18623   1.64533
O    -3.88964   2.31985   1.44892
C    -0.57609   0.95697   0.31451
C    -0.27489  -0.08047  -0.77493
C    -1.08156  -1.38070  -0.63302
C    -0.27863  -2.25407   0.39617
C    -0.18622  -3.70939  -0.07405
C    -0.86937  -2.19775   1.80828
N     1.06123  -1.61112   0.39431
C     1.17857  -0.62657  -0.67226
C     1.53449  -1.28095  -1.96180
N     1.81603  -1.84287  -2.93895
C     2.21548   0.46551  -0.40028
C     2.86431   0.55688   0.83423
C     3.76851   1.59645   1.07900
C     4.02763   2.55199   0.09355
C     3.38109   2.46174  -1.14455
C     2.48240   1.42244  -1.39044
H    -4.44412  -1.85394  -0.52315
H    -3.24845  -2.66751  -1.57211
H    -3.30917  -3.04454   0.17002
H    -3.94249   0.06558   0.48150
H    -0.80559   3.10230   1.56678
H    -2.19377   3.98419   2.13955
H    -0.01947   0.70935   1.23407
H    -0.18382   1.92755  -0.02465
H    -0.45076   0.36890  -1.76108
H    -1.04583  -1.90424  -1.60017
H     0.26080  -3.77117  -1.07809
H    -1.18265  -4.17443  -0.11169
H     0.43696  -4.29765   0.61887
H    -0.97605  -1.16362   2.16288
H    -1.85568  -2.68267   1.84974
H    -0.20192  -2.72936   2.50423
H     1.82508  -2.28366   0.39123
H     2.65326  -0.18531   1.60337
H     4.27079   1.65787   2.04742
H     4.73231   3.36427   0.28660
H     3.57692   3.20416  -1.92173
H     1.98089   1.35737  -2.35939
