25
Generated by autodE on: 2022-06-19. E = -536.117180 Ha
C    -3.20329  -0.12528   1.12168
C    -2.07139   0.69137   1.62870
C    -2.23362   1.52275   2.85228
N    -0.91611   0.70232   1.00815
C    -0.52892   0.13647  -0.21232
C    -1.45482   0.07182  -1.25882
N    -2.20489   0.02877  -2.16297
C     0.86742  -0.21739  -0.40636
C     1.36903  -0.52378  -1.69658
C     2.70847  -0.84964  -1.89138
C     3.60602  -0.87543  -0.81473
C     3.12705  -0.58189   0.46559
C     1.78179  -0.27086   0.67432
H    -2.83821  -1.09633   0.74802
H    -3.71898   0.36703   0.27899
H    -3.93857  -0.28509   1.92169
H    -1.29194   2.00280   3.15548
H    -2.61527   0.90294   3.68013
H    -2.98707   2.31047   2.67474
H    -0.17235   1.21914   1.48686
H     0.69177  -0.49643  -2.55345
H     3.05975  -1.07998  -2.90079
H     4.65706  -1.12712  -0.97226
H     3.80502  -0.60962   1.32286
H     1.43962  -0.09075   1.69595
