20
Generated by autodE on: 2022-06-19. E = -457.715345 Ha
C     2.98122  -0.87899  -0.64792
N     1.81822  -0.19565  -0.10542
C     1.97773   1.04682   0.52120
C     0.93857   1.78881   0.93562
C    -0.49869   1.36050   0.76979
C    -0.57425   0.02786   0.04250
C    -1.86788  -0.60086  -0.27061
N    -2.97247   0.08046   0.12465
O    -1.97645  -1.69337  -0.86384
C     0.55090  -0.63969  -0.33881
H     2.70055  -1.89839  -0.94176
H     3.38502  -0.35635  -1.53215
H     3.77649  -0.94104   0.11014
H     3.01349   1.36575   0.65114
H     1.14437   2.74384   1.42443
H    -1.06832   2.14142   0.22588
H    -0.99416   1.29890   1.76086
H    -2.92390   0.96366   0.61618
H    -3.88444  -0.32007  -0.06542
H     0.46685  -1.59430  -0.86072
