45
Generated by autodE on: 2022-06-19. E = -993.816900 Ha. Imaginary frequency = -435.9 cm-1
C    -3.50404  -1.54941   0.93001
N    -2.48070  -0.78984   0.22558
C    -2.19194   0.47226   0.63185
C    -1.39224   1.34015  -0.05684
C    -1.12263   2.64584   0.54481
N    -0.41459   3.53266  -0.21414
O    -1.52866   2.97982   1.67836
C    -0.86645   0.94276  -1.41882
C    -0.86349  -0.55929  -1.56652
C    -1.73759  -1.37772  -0.83408
C    -0.36124  -2.83367   0.02035
C    -0.17546  -3.68632  -1.20890
C    -0.99663  -3.55444   1.17761
N     0.61443  -1.95307   0.38984
C     1.18989  -1.01546  -0.45140
C     1.83311  -1.46034  -1.64056
N     2.36856  -1.75349  -2.63695
C     1.69938   0.23511   0.14011
C     1.26009   0.69039   1.40126
C     1.72614   1.89188   1.93560
C     2.61484   2.69351   1.21448
C     3.04672   2.26642  -0.04582
C     2.59964   1.05567  -0.57381
H    -3.20221  -1.79681   1.95968
H    -4.44301  -0.97626   0.97326
H    -3.69981  -2.48358   0.39086
H    -2.64816   0.78292   1.57434
H    -0.03822   4.33885   0.27470
H     0.12751   3.20143  -1.00371
H     0.14861   1.33783  -1.59090
H    -1.48639   1.39110  -2.22484
H    -0.52901  -0.94654  -2.52946
H    -2.25483  -2.19981  -1.33069
H     0.06633  -3.11861  -2.11263
H    -1.09545  -4.25702  -1.39716
H     0.64015  -4.41064  -1.03355
H    -1.12796  -2.89389   2.04691
H    -1.97298  -3.96268   0.88727
H    -0.36494  -4.40743   1.48497
H     0.51590  -1.62677   1.34779
H     0.52906   0.12249   1.97805
H     1.35819   2.21848   2.91052
H     2.96354   3.64285   1.62695
H     3.74052   2.87997  -0.62558
H     2.95400   0.73783  -1.55593
