73
Generated by autodE on: 2022-10-24. E = -1705.427027 Ha
C   -30.24203  -5.89323 -10.63664
N   -29.32364  -6.68916  -9.84957
C   -29.54005  -7.03084  -8.57145
O   -30.59324  -6.83395  -7.96021
C   -28.35262  -7.75963  -7.89459
C   -28.81440  -8.13662  -6.46249
O   -28.51914  -7.52921  -5.45428
O   -29.54992  -9.24305  -6.46898
C   -29.98499  -9.74954  -5.19731
N   -28.02076  -8.91665  -8.70375
C   -26.62137  -9.30064  -8.43772
C   -26.62206 -10.34118  -7.30326
C   -26.29285 -10.02416  -5.98158
C   -26.45857 -10.95957  -4.95438
C   -26.96543 -12.23012  -5.23268
C   -27.30560 -12.55719  -6.55016
C   -27.13366 -11.62275  -7.57210
C   -25.99500  -9.84073  -9.73695
C   -26.38961  -9.29839 -10.96747
C   -25.78358  -9.70170 -12.16050
C   -24.77427 -10.66788 -12.14329
C   -24.38818 -11.23232 -10.92319
C   -24.99416 -10.82296  -9.73333
C   -26.02114  -7.92821  -8.04305
C   -26.99714  -7.01983  -7.81758
C   -26.92242  -5.49729  -7.54795
C   -28.29120  -4.85255  -7.17094
C   -26.09700  -5.15568  -6.37823
N   -25.58875  -4.72971  -5.42539
C   -26.43214  -4.68216  -8.78957
C   -25.03452  -4.88699  -9.36873
C   -24.82670  -6.19087 -10.15894
C   -24.01860  -7.28480  -9.46708
C   -24.49955  -7.75039  -8.07728
O   -23.97126  -9.01276  -7.73917
C   -22.59499  -9.24610  -7.98569
O   -24.02441  -6.78028  -7.15520
C   -23.90693  -7.16974  -5.79304
H   -30.38911  -6.34196 -11.63016
H   -29.86306  -4.86630 -10.76858
H   -31.20771  -5.84851 -10.11909
H   -28.41068  -6.90683 -10.23838
H   -30.50387 -10.69074  -5.40989
H   -29.11881  -9.92896  -4.54622
H   -30.66863  -9.03385  -4.71873
H   -28.66533  -9.68578  -8.53534
H   -25.91498  -9.03490  -5.73935
H   -26.19329 -10.68522  -3.93059
H   -27.09855 -12.96021  -4.43096
H   -27.70742 -13.54614  -6.78383
H   -27.40999 -11.89122  -8.59407
H   -27.17952  -8.54948 -10.98719
H   -26.10329  -9.25729 -13.10617
H   -24.29679 -10.98524 -13.07347
H   -23.60767 -11.99660 -10.89475
H   -24.67284 -11.26566  -8.79239
H   -28.94198  -4.78544  -8.04858
H   -28.10661  -3.82519  -6.83063
H   -28.79539  -5.39765  -6.36814
H   -26.53568  -3.62392  -8.50408
H   -27.17893  -4.86403  -9.57823
H   -24.27378  -4.78337  -8.58067
H   -24.87660  -4.03783 -10.05246
H   -24.29373  -5.96254 -11.09541
H   -25.80459  -6.59162 -10.46871
H   -23.99060  -8.16465 -10.12236
H   -22.98132  -6.94322  -9.33252
H   -21.96702  -8.40408  -7.65307
H   -22.39775  -9.44486  -9.05139
H   -22.32310 -10.13978  -7.40659
H   -23.48978  -6.30518  -5.26382
H   -24.88071  -7.40716  -5.33945
H   -23.23265  -8.02916  -5.66973
