41
Generated by autodE on: 2022-10-24. E = -1032.442406 Ha
C     5.07410  -1.06909  -1.61906
N     4.01009  -0.49260  -0.82765
C     2.71873  -0.83136  -1.01787
O     2.37047  -1.62494  -1.92635
C     1.70585  -0.25361  -0.12911
N     0.43453  -0.67383  -0.48962
C    -0.79693  -0.25260  -0.27276
C    -1.08568   1.05257   0.34898
C    -0.38786   2.20276  -0.06029
C    -0.66645   3.43753   0.52152
C    -1.63495   3.53958   1.52817
C    -2.33824   2.40181   1.93370
C    -2.07351   1.16575   1.34093
C    -1.89182  -1.11642  -0.73862
C    -3.12518  -0.55620  -1.13254
C    -4.15050  -1.36884  -1.61291
C    -3.97031  -2.75337  -1.70631
C    -2.75496  -3.32200  -1.31168
C    -1.72610  -2.51509  -0.82727
C     2.02353   0.43645   1.08643
O     3.12464   0.93815   1.35161
O     1.01303   0.46228   1.98052
C     1.17803   1.28903   3.13208
H     4.89345  -0.92617  -2.69631
H     5.18476  -2.15281  -1.44164
H     6.01908  -0.57704  -1.35612
H     4.20762   0.13231  -0.04800
H     0.53324  -1.45813  -1.15331
H     0.37836   2.12666  -0.83395
H    -0.12358   4.32624   0.19192
H    -1.84247   4.50662   1.99195
H    -3.09647   2.47563   2.71648
H    -2.61896   0.27687   1.66238
H    -3.27018   0.52336  -1.08166
H    -5.09559  -0.91730  -1.92277
H    -4.77756  -3.38791  -2.07899
H    -2.61174  -4.40346  -1.36576
H    -0.79969  -2.98079  -0.48468
H     2.01603   0.94039   3.75354
H     0.23923   1.21584   3.69402
H     1.35475   2.33459   2.83792
