32
Generated by autodE on: 2022-10-24. E = -672.916333 Ha
C     0.70175  -2.86092  -1.68469
O    -0.29830  -1.85430  -1.76509
C    -0.76074  -1.35599  -0.52944
O    -1.31452  -2.38348   0.26518
C    -2.46841  -3.02953  -0.26162
C     0.33206  -0.72809   0.24445
C     1.01344   0.18678   0.65104
C     1.49846   1.55709   0.85550
C     3.03316   1.68867   0.79715
C     1.02183   2.03221   2.16981
N     0.65097   2.43133   3.19439
C     0.81367   2.40838  -0.26845
C    -0.69798   2.18639  -0.46603
C    -1.15508   1.06555  -1.44279
C    -1.76152  -0.22553  -0.85560
H     0.32944  -3.76376  -1.17470
H     0.98076  -3.11597  -2.71581
H     1.59556  -2.49441  -1.14983
H    -2.61390  -3.94326   0.33111
H    -3.36983  -2.40134  -0.16970
H    -2.33005  -3.30925  -1.31803
H     3.32144   2.74487   0.89705
H     3.50689   1.10952   1.60204
H     3.38768   1.31078  -0.17203
H     1.35381   2.18089  -1.20064
H     1.01223   3.46473  -0.02973
H    -1.18523   2.05497   0.51577
H    -1.09102   3.13670  -0.85797
H    -0.33020   0.79868  -2.12369
H    -1.93456   1.50002  -2.08673
H    -2.31518  -0.00234   0.06958
H    -2.47906  -0.64430  -1.57694
