73
Generated by autodE on: 2022-10-24. E = -1705.331446 Ha. Imaginary frequency = -203.6 cm-1
C   -29.99547  -5.50539 -10.69812
N   -29.25655  -6.53882  -9.99675
C   -29.70575  -7.01250  -8.79800
O   -30.79082  -6.65467  -8.31706
C   -28.84850  -8.00016  -8.11187
C   -29.32633  -8.40914  -6.76286
O   -29.35200  -7.68916  -5.78230
O   -29.80117  -9.65949  -6.75394
C   -30.24868 -10.17212  -5.49101
N   -28.11083  -8.83199  -8.89889
C   -27.07598  -9.64012  -8.61765
C   -27.06937 -10.44400  -7.35124
C   -26.61523  -9.98925  -6.10788
C   -26.66752 -10.82032  -4.98414
C   -27.17547 -12.11647  -5.08458
C   -27.63955 -12.57882  -6.32065
C   -27.58563 -11.75105  -7.44139
C   -26.27985 -10.11505  -9.77226
C   -26.35593  -9.50019 -11.04115
C   -25.54866  -9.92129 -12.09648
C   -24.63314 -10.96337 -11.91680
C   -24.53920 -11.57783 -10.66503
C   -25.35011 -11.16163  -9.61023
C   -25.87861  -7.54999  -7.83489
C   -26.75356  -6.69795  -7.61876
C   -26.96496  -5.22956  -7.38636
C   -28.38815  -4.75845  -7.03325
C   -26.10120  -4.86603  -6.24227
N   -25.44286  -4.54238  -5.34243
C   -26.45466  -4.44656  -8.64011
C   -25.04611  -4.78252  -9.15094
C   -24.92799  -6.05325 -10.03042
C   -24.07719  -7.21347  -9.49518
C   -24.42149  -7.74292  -8.08388
O   -24.08805  -9.09919  -7.90129
C   -22.76256  -9.48099  -8.22780
O   -23.66283  -6.94794  -7.17189
C   -23.74489  -7.32406  -5.80456
H   -29.97540  -4.54292 -10.15757
H   -31.04527  -5.80475 -10.82136
H   -29.54961  -5.36083 -11.69059
H   -28.25219  -6.54814 -10.15530
H   -30.49324 -11.22625  -5.66213
H   -29.45423 -10.08255  -4.73810
H   -31.13991  -9.62355  -5.15296
H   -28.14465  -8.55742  -9.87903
H   -26.22042  -8.98154  -6.01549
H   -26.30530 -10.44484  -4.02437
H   -27.21401 -12.76333  -4.20509
H   -28.04564 -13.58880  -6.41335
H   -27.95277 -12.11645  -8.40250
H   -27.02790  -8.66109 -11.23502
H   -25.63079  -9.42181 -13.06430
H   -23.99711 -11.28843 -12.74309
H   -23.82366 -12.38714 -10.50302
H   -25.24322 -11.64154  -8.63926
H   -29.03074  -4.80570  -7.91847
H   -28.35409  -3.71145  -6.69978
H   -28.82238  -5.37992  -6.24223
H   -26.50881  -3.37743  -8.38013
H   -27.19537  -4.61534  -9.43664
H   -24.34996  -4.83939  -8.30010
H   -24.71672  -3.91569  -9.74422
H   -24.48861  -5.77524 -11.00167
H   -25.93546  -6.42989 -10.26628
H   -24.17426  -8.05648 -10.19384
H   -23.01500  -6.92534  -9.47140
H   -22.01900  -8.80862  -7.76963
H   -22.59760  -9.51039  -9.31722
H   -22.61978 -10.49401  -7.82708
H   -23.19122  -6.56541  -5.23583
H   -24.78581  -7.33822  -5.44593
H   -23.29288  -8.31302  -5.62709
