23
Generated by autodE on: 2022-10-12. E = -351.521383 Ha
C     3.31304   1.75495  -0.49188
C     2.46791   0.72528  -0.26515
C     2.98045  -0.67677  -0.05591
C     1.02614   0.96074  -0.21936
C     0.07642   0.01573  -0.00494
C    -1.34281   0.30409   0.02995
C    -2.35112  -0.58115   0.23337
C    -3.78316  -0.12637   0.24330
C    -2.15475  -2.05280   0.46313
H     2.93831   2.77191  -0.64368
H     4.39579   1.60672  -0.53135
H     4.07745  -0.71232  -0.11380
H     2.67235  -1.06984   0.92723
H     2.57093  -1.36679  -0.81232
H     0.70521   1.99774  -0.37539
H     0.38804  -1.02054   0.15168
H    -1.61651   1.35455  -0.12675
H    -3.87697   0.95609   0.07234
H    -4.26509  -0.37117   1.20699
H    -4.36710  -0.65457  -0.53186
H    -1.10350  -2.36734   0.43933
H    -2.57984  -2.34690   1.43915
H    -2.70489  -2.63472  -0.29729
