26
Generated by autodE on: 2022-10-12. E = -652.317249 Ha
C    -3.41452  -1.80088   1.23035
O    -2.38386  -0.97360   0.69286
C    -2.79683   0.14041   0.02418
O    -3.99332   0.41424  -0.10678
C    -1.72582   0.93399  -0.49430
C    -1.89247   2.19084  -1.25329
O    -0.49718   0.46379  -0.25553
C     0.64407   0.96553  -0.60576
C     1.84139   0.27081  -0.23379
C     1.80912  -0.94083   0.49880
C     2.99513  -1.58397   0.83603
C     4.23167  -1.04127   0.45628
C     4.27347   0.15683  -0.26729
C     3.09252   0.81048  -0.61134
H    -2.90653  -2.63807   1.72509
H    -4.07302  -2.18327   0.43520
H    -4.02466  -1.25078   1.96332
H    -1.38897   3.03970  -0.75089
H    -1.44994   2.11731  -2.26591
H    -2.95965   2.42303  -1.35180
H     0.66627   1.89851  -1.17305
H     0.84573  -1.36129   0.79287
H     2.96109  -2.51849   1.40101
H     5.15902  -1.55241   0.72438
H     5.23458   0.58266  -0.56452
H     3.12265   1.74524  -1.17644
