49
Generated by autodE on: 2022-10-12. E = -1003.845634 Ha. Imaginary frequency = -320.5 cm-1
C     3.87201   0.50574   0.00221
C     2.55746   0.71849  -0.22113
C     2.03710   1.02293  -1.60270
C     1.60048   0.67287   0.89072
C     0.32588   1.23894   0.82507
C    -0.39159   1.68455   2.01361
C    -1.40628   2.57989   2.06811
C    -1.95289   3.32061   0.87730
C    -2.04705   2.93947   3.38051
C    -1.02035  -0.65954   0.37421
C    -1.99825  -0.24071  -0.60076
C    -1.76025  -0.33396  -1.98984
C    -2.70129   0.15125  -2.89404
C    -3.88862   0.74005  -2.43571
C    -4.13426   0.82950  -1.06088
C    -3.20171   0.33870  -0.14817
O    -0.01123  -1.39710  -0.03782
C     1.03556  -1.67337   0.76092
C     0.81727  -1.94062   2.21156
C     2.17940  -2.22494   0.06488
O     3.20258  -2.60720   0.62715
O     2.05831  -2.20707  -1.27960
C     3.20552  -2.61184  -2.02970
H     4.24892   0.28909   1.00570
H     4.60114   0.54683  -0.81151
H     1.18074   0.38170  -1.85846
H     1.68302   2.06535  -1.67234
H     2.81975   0.87616  -2.36043
H     2.03265   0.49419   1.87924
H     0.01105   1.65633  -0.13142
H    -0.05528   1.24283   2.95934
H    -1.53995   2.97949  -0.08035
H    -1.74195   4.40151   0.97594
H    -3.05000   3.22453   0.82672
H    -1.96956   4.02457   3.57565
H    -3.12791   2.70916   3.36576
H    -1.59166   2.40213   4.22579
H    -1.28937  -0.69284   1.42925
H    -0.83413  -0.78933  -2.34496
H    -2.50979   0.07453  -3.96702
H    -4.62082   1.12340  -3.14999
H    -5.06000   1.28265  -0.69871
H    -3.39039   0.40768   0.92516
H     1.77252  -2.22766   2.66764
H     0.10022  -2.77309   2.34560
H     0.42234  -1.07302   2.75846
H     4.07088  -1.97542  -1.79523
H     2.93223  -2.49778  -3.08562
H     3.46108  -3.66151  -1.82058
