49
Generated by autodE on: 2022-06-20. E = -1020.935571 Ha
C     5.38158   0.99352   0.74535
C     4.45151   0.61980  -0.15670
C     4.78637   0.43781  -1.61359
C     3.07124   0.38281   0.28010
C     2.05091   0.02015  -0.51924
C     0.66555  -0.22826  -0.01798
C    -0.47334   0.57360  -0.74132
C    -0.16573   1.00598  -2.17364
C    -0.88887   1.78992   0.08199
C    -2.21669   1.98814   0.47959
C    -2.57491   3.11831   1.22290
C    -1.61112   4.06619   1.57477
C    -0.28311   3.87734   1.17583
C     0.07440   2.74971   0.43410
O    -1.58049  -0.36306  -0.82388
C    -1.34149  -1.50247  -0.03615
C    -1.80988  -1.26694   1.35109
N    -2.20456  -1.05106   2.42019
C    -2.12137  -2.72496  -0.57788
C    -2.73974  -2.60299  -1.93143
O    -2.19359  -3.71585   0.12129
C     0.21556  -1.72214  -0.08517
C     0.61625  -2.41610  -1.39437
C     0.75667  -2.52556   1.09380
H     5.12531   1.12278   1.80136
H     6.41901   1.17880   0.45310
H     4.17958   1.10693  -2.24616
H     4.56713  -0.59096  -1.94472
H     5.84792   0.64589  -1.80800
H     2.87541   0.52579   1.34924
H     2.22590  -0.12330  -1.58733
H     0.63363   0.05172   1.04436
H    -1.07419   1.43713  -2.61966
H     0.16054   0.15669  -2.78880
H     0.61987   1.77350  -2.18628
H    -2.97304   1.25134   0.20981
H    -3.61538   3.25532   1.52788
H    -1.89120   4.94798   2.15597
H     0.48002   4.61198   1.44433
H     1.11396   2.61150   0.13048
H    -2.00537  -2.25435  -2.67123
H    -3.53028  -1.83558  -1.88777
H    -3.16753  -3.56846  -2.22970
H     0.24541  -1.89227  -2.28446
H     1.71201  -2.46419  -1.46029
H     0.24307  -3.45062  -1.41744
H     1.85250  -2.58947   1.01703
H     0.35113  -3.54809   1.08822
H     0.51208  -2.05789   2.05831
