23
Generated by autodE on: 2022-06-20. E = -351.521382 Ha
C     3.54429  -0.64144   1.15119
C     2.54252  -0.38042   0.28277
C     2.81010  -0.19441  -1.18894
C     1.16736  -0.27280   0.76585
C     0.07799  -0.01154   0.00038
C    -1.26598   0.08518   0.53254
C    -2.40349   0.34373  -0.16097
C    -3.73161   0.41214   0.53856
C    -2.45905   0.57960  -1.64368
H     4.58209  -0.72670   0.81715
H     3.34655  -0.77603   2.21914
H     2.25324  -0.93209  -1.79038
H     2.48139   0.80138  -1.53009
H     3.88026  -0.30101  -1.41582
H     1.02588  -0.41846   1.84360
H     0.21123   0.13542  -1.07492
H    -1.35840  -0.06946   1.61443
H    -4.20523   1.39838   0.38416
H    -4.43335  -0.33143   0.11957
H    -3.64187   0.23473   1.62034
H    -3.12759  -0.15758  -2.12253
H    -1.48031   0.52431  -2.13716
H    -2.89600   1.57130  -1.85647
