49
Generated by autodE on: 2022-06-20. E = -1020.856892 Ha. Imaginary frequency = -346.2 cm-1
C     5.43157   1.27005  -0.28206
C     4.45621   0.47704  -0.77656
C     4.56814  -0.14703  -2.14369
C     3.25110   0.22110   0.01107
C     2.21211  -0.55246  -0.38145
C     1.01528  -0.77332   0.41995
C    -0.35279   0.76688  -0.71321
C     0.46301   1.25677  -1.86563
C    -0.64181   1.73146   0.37062
C    -1.96898   2.11479   0.63910
C    -2.24158   3.10124   1.58805
C    -1.19743   3.72220   2.27818
C     0.12752   3.36755   1.99605
C     0.40563   2.39189   1.04131
O    -1.28122  -0.10516  -1.09817
C    -1.90013  -1.03867  -0.32568
C    -2.36049  -0.77151   0.98487
N    -2.75289  -0.62639   2.07481
C    -2.47446  -2.16692  -1.03125
C    -2.32838  -2.21655  -2.53034
O    -3.06327  -3.05804  -0.40367
C     0.30917  -1.98851   0.36744
C     0.51207  -2.93495  -0.78165
C    -0.19464  -2.61425   1.63250
H     6.33777   1.48574  -0.85485
H     5.34289   1.72384   0.70989
H     5.51168   0.13165  -2.63365
H     4.52058  -1.24711  -2.08368
H     3.73306   0.16846  -2.79128
H     3.20437   0.70996   0.99073
H     2.26159  -1.05231  -1.35090
H     0.98566  -0.25210   1.38040
H    -0.10979   2.03442  -2.40147
H     0.69816   0.44066  -2.56051
H     1.39271   1.71808  -1.51192
H    -2.79097   1.66073   0.08513
H    -3.27726   3.38855   1.78279
H    -1.41263   4.49006   3.02471
H     0.95004   3.85950   2.51998
H     1.44029   2.13143   0.81939
H    -3.02463  -1.48944  -2.98168
H    -2.58594  -3.22386  -2.88282
H    -1.31801  -1.94272  -2.86095
H     0.57472  -2.42164  -1.74997
H    -0.28149  -3.69362  -0.82419
H     1.46703  -3.47218  -0.63404
H     0.58464  -3.30886   1.99803
H    -1.10390  -3.21180   1.46552
H    -0.38196  -1.87622   2.42293
