44
Generated by autodE on: 2022-06-02. E = -1386.559543 Ha
C    -1.21121  -2.18521   2.15778
C    -1.72458  -2.15988   0.75238
O    -2.84277  -2.50817   0.43431
C    -0.76806  -1.62067  -0.35447
C    -1.14112  -2.28427  -1.63073
N    -1.35259  -2.81976  -2.63778
C    -0.94267  -0.07553  -0.53699
C    -1.41741   0.73323   0.71410
O    -0.21629   0.83406   1.48290
C     0.57042   1.49352   0.47925
C    -0.33664   2.64564   0.07371
C    -1.57735   2.17080   0.22468
C    -2.86683   2.79847  -0.15683
F    -2.71649   4.06953  -0.55946
F    -3.74744   2.80098   0.86478
F    -3.46077   2.12395  -1.16825
C     0.50123   0.48232  -0.70769
C     1.45472  -0.75494  -0.60541
C     1.85508  -1.12119  -1.99426
N     2.12016  -1.45583  -3.07317
C     2.70689  -0.48371   0.23173
C     2.70146  -0.76876   1.60272
C     3.80985  -0.44619   2.38964
C     4.92782   0.16700   1.81616
C     4.93361   0.45398   0.44792
C     3.82824   0.12783  -0.34202
N     0.62996  -1.81491  -0.03021
C     1.15361  -3.17128  -0.10057
H    -0.63164  -1.28382   2.39314
H    -0.52533  -3.04130   2.26802
H    -2.05465  -2.31197   2.84850
H    -1.60058   0.11982  -1.38838
H    -2.24923   0.32148   1.29366
H     1.56920   1.74217   0.84570
H    -0.01353   3.60009  -0.33982
H     0.66031   0.99518  -1.66111
H     1.82636  -1.24099   2.04840
H     3.79787  -0.67587   3.45760
H     5.79358   0.41833   2.43318
H     5.80284   0.93150  -0.00991
H     3.84185   0.35639  -1.41000
H     2.14578  -3.20661   0.36894
H     1.24486  -3.54141  -1.13927
H     0.49348  -3.85735   0.44620
