28
Generated by autodE on: 2022-07-27. E = -741.761939 Ha
C    -4.34148  -0.98106  -0.36342
C    -3.09311  -0.88444   0.48580
O    -3.15511  -1.07022   1.70555
C    -1.86628  -0.53687  -0.22614
C    -1.94188  -0.25536  -1.60729
N    -2.01702  -0.05861  -2.75740
N    -0.61046  -0.44366   0.37884
C    -0.28832  -1.40154   1.45605
C     0.30602   0.44196  -0.02296
C    -0.13626   1.58787  -0.74843
N    -0.44055   2.57024  -1.29485
C     1.75022   0.33422   0.22674
C     2.48483   1.49996   0.52381
C     3.85960   1.42697   0.73628
C     4.52139   0.19839   0.63587
C     3.80260  -0.95861   0.31569
C     2.42602  -0.89720   0.10996
H    -5.18049  -1.28234   0.27638
H    -4.21277  -1.71415  -1.17507
H    -4.57141  -0.01124  -0.83255
H     0.57589  -1.04369   2.02067
H    -0.08761  -2.38748   1.01725
H    -1.16814  -1.45954   2.10177
H     1.97104   2.46007   0.60184
H     4.41747   2.33331   0.98047
H     5.60010   0.14381   0.79828
H     4.31936  -1.91534   0.21578
H     1.88105  -1.79992  -0.16663
