44
Generated by autodE on: 2022-06-02. E = -1386.468503 Ha. Imaginary frequency = -300.5 cm-1
C    -3.03299  -2.59159  -0.52506
C    -1.69448  -2.38646   0.13865
O    -1.57394  -2.47876   1.35665
C    -0.57501  -1.97367  -0.74103
C    -0.82514  -2.08722  -2.14183
N    -1.12023  -2.21359  -3.26194
C    -1.02542   0.34116  -0.68865
C    -1.46243   0.59565   0.76718
O    -0.19916   0.49903   1.44101
C     0.47448   1.48923   0.64154
C    -0.49516   2.67986   0.78643
C    -1.70384   2.11741   0.87020
C    -3.04447   2.74418   0.90093
F    -3.76042   2.35535   1.97760
F    -2.98924   4.08546   0.92287
F    -3.76980   2.38784  -0.18428
C     0.24339   0.90380  -0.76160
C     1.62856  -1.01935  -0.82649
C     1.64143  -0.83619  -2.25187
N     1.75583  -0.63561  -3.39238
C     2.92502  -0.70770  -0.17087
C     2.99785  -0.40352   1.20485
C     4.21588  -0.06866   1.79306
C     5.38519  -0.02739   1.02711
C     5.32569  -0.32010  -0.33815
C     4.10900  -0.65228  -0.93292
N     0.73301  -1.90444  -0.27849
C     1.10129  -2.67279   0.92805
H    -3.78318  -2.78610   0.25121
H    -2.99461  -3.44117  -1.22466
H    -3.32427  -1.70231  -1.10570
H    -1.73630   0.25313  -1.50818
H    -2.22148  -0.05226   1.21245
H     1.50580   1.65496   0.96449
H    -0.22236   3.73359   0.75576
H     0.68599   1.33777  -1.65541
H     2.10023  -0.41334   1.81823
H     4.24858   0.16707   2.85889
H     6.33784   0.23513   1.49254
H     6.23179  -0.29233  -0.94711
H     4.08192  -0.87880  -1.99938
H     2.17901  -2.85963   0.89725
H     0.57680  -3.63176   0.89402
H     0.83194  -2.15146   1.85061
