23
Generated by autodE on: 2022-06-17. E = -351.521387 Ha
C     3.74691   0.50079  -0.09790
C     2.57739  -0.17580  -0.11276
C     2.54250  -1.67667  -0.24829
C     1.31313   0.54848   0.00237
C     0.07764  -0.01216  -0.00194
C    -1.14657   0.75374   0.11391
C    -2.41488   0.27114   0.11546
C    -2.76972  -1.18357  -0.00685
C    -3.59024   1.19831   0.24466
H     3.76936   1.59055   0.00020
H     4.70680  -0.01616  -0.18313
H     3.55682  -2.09306  -0.32502
H     2.04109  -2.14249   0.61635
H     1.97429  -1.98159  -1.14281
H     1.39214   1.63807   0.09915
H    -0.00916  -1.09783  -0.09830
H    -1.01879   1.83879   0.20983
H    -1.89860  -1.84513  -0.09686
H    -3.35854  -1.50778   0.86941
H    -3.41723  -1.34595  -0.88666
H    -4.19709   0.93962   1.13104
H    -4.26436   1.09967  -0.62519
H    -3.28237   2.25088   0.32879
