10
Generated by autodE on: 2022-06-17. E = -396.601761 Ha
C    -2.22793  -0.10925  -0.14148
C    -0.75881  -0.19310  -0.07471
O    -0.12229  -1.34021  -0.23996
N     1.19703  -1.23787  -0.15079
O     1.42167   0.05595   0.08821
C     0.22679   0.80774   0.15403
O     0.21723   2.00319   0.35988
H    -2.64588   0.12399   0.85222
H    -2.65065  -1.05863  -0.49484
H    -2.52341   0.70233  -0.82504
