23
Generated by autodE on: 2022-06-30. E = -351.521385 Ha
C     3.39419  -1.19405  -1.16218
C     2.44781  -0.78269  -0.28987
C     2.73924  -0.66386   1.18426
C     1.11008  -0.44341  -0.77101
C     0.07548  -0.02238  -0.00081
C    -1.23328   0.30112  -0.53122
C    -2.31631   0.72581   0.16751
C    -2.33757   0.93744   1.65469
C    -3.61340   1.02265  -0.53054
H     3.17903  -1.27929  -2.23183
H     4.40301  -1.45450  -0.82998
H     2.57634   0.36723   1.53964
H     3.77722  -0.94678   1.40929
H     2.06836  -1.30931   1.77528
H     0.94947  -0.54532  -1.85110
H     0.22774   0.08114   1.07698
H    -1.34578   0.18512  -1.61602
H    -1.38131   0.71702   2.14615
H    -3.11625   0.30674   2.11901
H    -2.61146   1.98161   1.88785
H    -3.54975   0.85453  -1.61564
H    -4.42797   0.39469  -0.12679
H    -3.92105   2.06947  -0.35635
