43
Generated by autodE on: 2022-07-27. E = -996.493198 Ha
C     0.30912  -4.90053   1.90746
N     0.77374  -3.53287   1.81206
C     0.36112  -2.71786   0.80360
O    -0.43053  -3.16794  -0.06137
C     0.82172  -1.33949   0.73347
C     1.40329  -0.48790   1.71724
C     1.65654  -1.00361   3.12378
O     1.70488   0.70907   1.47874
N     0.64981  -0.73019  -0.55474
C     1.43724  -1.30980  -1.65066
C    -0.01350   0.39831  -0.67454
C     0.23079   1.32093  -1.79809
C     1.54176   1.72953  -2.10382
C     1.76490   2.64430  -3.13191
C     0.68775   3.14850  -3.86905
C    -0.61865   2.75195  -3.56286
C    -0.85082   1.85507  -2.52052
C    -1.04473   0.76833   0.31213
C    -1.14133   2.09420   0.76317
C    -2.13838   2.45284   1.67262
C    -3.05532   1.49681   2.11791
C    -2.97448   0.17688   1.65381
C    -1.97018  -0.19210   0.76228
H     0.67580  -5.52798   1.07630
H     0.66670  -5.33094   2.85186
H    -0.79060  -4.94546   1.89568
H     1.53235  -3.24374   2.41368
H     0.80318  -1.56949   3.52260
H     2.54707  -1.65417   3.15757
H     1.85170  -0.13798   3.77068
H     1.29971  -2.39660  -1.61298
H     1.08863  -0.93542  -2.61909
H     2.50189  -1.07543  -1.51469
H     2.37520   1.35255  -1.51000
H     2.78327   2.96914  -3.35574
H     0.86611   3.86028  -4.67831
H    -1.46047   3.14925  -4.13391
H    -1.86909   1.55185  -2.27106
H    -0.42237   2.83636   0.41311
H    -2.20067   3.48255   2.03117
H    -3.84078   1.77986   2.82253
H    -3.70074  -0.56690   1.98898
H    -1.90076  -1.21689   0.39459
