66
Generated by autodE on: 2022-06-30. E = -1347.959964 Ha. Imaginary frequency = -283.7 cm-1
C     3.08878  -1.08485  -0.38774
C     2.43970  -1.21536   0.79339
C     2.94906  -2.19262   1.82547
C     1.26486  -0.43397   1.19476
C     0.78409   0.72242   0.51866
C     0.38379   1.86094   1.34144
C     0.46659   3.17000   1.01371
C    -0.00592   4.23195   1.96600
C     0.94890   3.67963  -0.31544
C    -1.03512   0.14328  -0.66930
C    -0.67763   0.64528  -2.04113
C     0.51727   0.21581  -2.65397
C     0.89882   0.67036  -3.91408
C     0.09096   1.57753  -4.60889
C    -1.10874   1.99862  -4.03093
C    -1.49099   1.53422  -2.76958
C    -2.24646   0.76547  -0.06510
C    -2.38923   2.16039   0.05967
C    -3.56160   2.72199   0.57097
C    -4.63413   1.90589   0.94184
C    -4.52588   0.52023   0.77848
C    -3.34852  -0.03952   0.28374
N    -0.90149  -1.25496  -0.52800
C    -1.16406  -2.08809  -1.72854
C    -0.54908  -1.89846   0.63821
C    -0.94317  -1.53052   2.00942
C    -0.52571  -2.45938   3.13712
O    -1.57353  -0.51398   2.30896
C    -0.21266  -3.36771   0.44459
O    -0.96293  -4.25568   0.87316
N     0.91013  -3.63504  -0.23495
C     1.36687  -4.99082  -0.45661
H     3.96465  -1.70062  -0.60807
H     2.80627  -0.34624  -1.13773
H     2.18641  -2.94443   2.07505
H     3.84945  -2.71722   1.47642
H     3.19265  -1.66535   2.76316
H     1.09730  -0.44849   2.27329
H     1.28167   0.96737  -0.41642
H    -0.01379   1.60787   2.32958
H    -0.34100   3.80848   2.92437
H     0.78789   4.97311   2.16757
H    -0.84928   4.79600   1.52607
H     1.74444   4.43285  -0.17922
H     1.32799   2.89152  -0.97903
H     0.12735   4.19595  -0.84506
H     1.15405  -0.49578  -2.13276
H     1.83456   0.31701  -4.35382
H     0.39004   1.94359  -5.59380
H    -1.76331   2.68955  -4.56771
H    -2.44448   1.86220  -2.35989
H    -1.58975   2.81591  -0.26854
H    -3.63822   3.80799   0.66649
H    -5.55277   2.34581   1.33756
H    -5.36430  -0.13050   1.03935
H    -3.27952  -1.12108   0.16207
H    -1.69166  -2.99801  -1.41757
H    -1.83000  -1.53299  -2.39694
H    -0.25838  -2.36767  -2.27729
H    -1.38185  -3.10649   3.38513
H     0.32893  -3.10572   2.91066
H    -0.29973  -1.84114   4.01729
H     1.52308  -2.85921  -0.48614
H     2.30580  -4.95875  -1.02357
H     1.54457  -5.51309   0.49797
H     0.62488  -5.57066  -1.02821
