50
Generated by autodE on: 2022-06-04. E = -1274.621080 Ha
C     0.73239  -3.02971   1.64689
C     1.17755  -1.97691   0.60185
C     0.91806  -2.53015  -0.74497
N     0.79622  -3.00248  -1.79805
C     2.72390  -1.79317   0.65754
C     3.33501  -1.50746   2.03288
C     2.76720  -0.33692   2.83465
C     2.86386   1.04549   2.19604
C     2.05700   1.29841   0.92627
F     1.83820   2.66167   0.85310
F     2.82791   1.03917  -0.19817
C     0.71996   0.61918   0.82372
C     0.36677  -0.68250   0.75173
N    -1.03075  -0.84029   0.89527
C    -1.79739  -1.48731  -0.14193
C    -1.83197  -0.97569  -1.44569
C    -2.57740  -1.63039  -2.42408
C    -3.28796  -2.79486  -2.10560
C    -3.26259  -3.29432  -0.80117
C    -2.52423  -2.63384   0.18596
O    -1.57064   0.47554   1.14401
C    -0.53149   1.46146   0.93674
C    -0.85231   2.34839  -0.25563
C    -1.87470   3.29919  -0.12779
C    -2.25217   4.08761  -1.21734
C    -1.60059   3.94016  -2.44674
C    -0.57093   3.00330  -2.57779
C    -0.20137   2.20936  -1.48834
H     1.39329  -3.90537   1.58116
H    -0.29857  -3.35862   1.47937
H     0.80257  -2.60536   2.65646
H     3.15204  -2.73996   0.29619
H     3.01274  -1.03190  -0.07235
H     4.41338  -1.34101   1.86963
H     3.26034  -2.41265   2.65552
H     3.31571  -0.28598   3.78858
H     1.71878  -0.53391   3.10846
H     2.49575   1.78641   2.92092
H     3.90866   1.30768   1.96290
H    -1.26683  -0.07586  -1.68655
H    -2.59929  -1.23601  -3.44252
H    -3.86586  -3.30955  -2.87670
H    -3.82339  -4.19628  -0.54640
H    -2.50582  -3.00282   1.21244
H    -0.52050   2.08358   1.84693
H    -2.37986   3.41842   0.83453
H    -3.05320   4.82251  -1.10656
H    -1.89179   4.55808  -3.29952
H    -0.05330   2.88777  -3.53310
H     0.60376   1.48034  -1.59730
