26
Generated by autodE on: 2022-07-27. E = -632.165281 Ha
C    -0.03226   1.61362   0.73235
O    -0.76563   0.56282   0.59693
N    -0.37381  -0.55094  -0.08825
C    -1.38587  -1.48462  -0.03189
C    -2.63283  -1.33302   0.62651
C    -3.56917  -2.36606   0.60536
C    -3.30766  -3.57007  -0.06043
C    -2.07743  -3.72740  -0.71414
C    -1.13085  -2.70741  -0.70393
C     1.28578   1.87379   0.24297
C     1.82196   3.14829   0.57237
C     3.09407   3.51133   0.15304
C     3.86443   2.61605  -0.60407
C     3.35068   1.35823  -0.93657
C     2.07507   0.97792  -0.52374
H    -0.55174   2.37753   1.31632
H    -2.85899  -0.40525   1.15183
H    -4.52371  -2.22638   1.12038
H    -4.04875  -4.37215  -0.06996
H    -1.85323  -4.65935  -1.23995
H    -0.17287  -2.83248  -1.21395
H     1.21880   3.84215   1.16246
H     3.49369   4.49374   0.41339
H     4.86586   2.90213  -0.93365
H     3.95260   0.66314  -1.52621
H     1.66839   0.00373  -0.77740
