26
Generated by autodE on: 2022-06-04. E = -632.167708 Ha
C     1.15657  -0.94524   0.62040
O    -0.01118  -0.51792   0.30812
N    -1.12065  -1.22881   0.68319
C    -2.24545  -0.57060   0.24845
C    -2.28480   0.65831  -0.46099
C    -3.50641   1.21192  -0.84182
C    -4.71875   0.57935  -0.53847
C    -4.68898  -0.63424   0.16367
C    -3.48023  -1.20252   0.55224
C     2.32102  -0.21484   0.22523
C     2.25013   0.98616  -0.52204
C     3.41756   1.65236  -0.87419
C     4.66839   1.14177  -0.49437
C     4.74793  -0.04537   0.24329
C     3.58590  -0.72265   0.60266
H     1.21644  -1.87785   1.19224
H    -1.35601   1.17208  -0.70878
H    -3.51020   2.15931  -1.38808
H    -5.66906   1.02325  -0.84246
H    -5.62333  -1.14514   0.41150
H    -3.45826  -2.14814   1.09885
H     1.27686   1.38115  -0.81797
H     3.35982   2.57820  -1.45064
H     5.58098   1.67210  -0.77545
H     5.72149  -0.44247   0.53843
H     3.63965  -1.64923   1.17865
