24
Generated by autodE on: 2022-06-04. E = -642.334305 Ha
C     1.28327  -2.63169  -0.36430
C     1.38835  -1.10645  -0.59196
C     2.80933  -0.74292  -0.72982
N     3.92962  -0.47428  -0.86627
C     0.75645  -0.36194   0.49904
C    -0.07082   0.25064   1.13718
C    -1.32459   0.99967   1.24872
F    -1.94752   0.80094   2.45218
F    -1.05799   2.34881   1.19262
C    -2.25612   0.60496   0.10839
C    -1.62748   0.62797  -1.29790
C    -0.91234  -0.65628  -1.80500
C     0.62688  -0.65014  -1.89199
H     0.22589  -2.91751  -0.28474
H     1.79966  -2.92231   0.56092
H     1.73740  -3.16093  -1.21384
H    -3.10218   1.30888   0.16103
H    -2.64506  -0.39798   0.34265
H    -2.45534   0.83345  -1.99232
H    -0.95390   1.49724  -1.38105
H    -1.26015  -0.83257  -2.83392
H    -1.25720  -1.53126  -1.23019
H     0.97511   0.36004  -2.15587
H     0.95983  -1.32848  -2.69236
