50
Generated by autodE on: 2022-06-04. E = -1274.489553 Ha. Imaginary frequency = -90.1 cm-1
C     1.24456  -3.01144   1.48586
C     1.67961  -1.89513   0.51780
C     1.33476  -2.27389  -0.86626
N     1.09936  -2.56818  -1.96339
C     3.22715  -1.61864   0.55135
C     3.86143  -1.28155   1.91031
C     3.37665  -0.08627   2.75951
C     3.22895   1.28195   2.05879
C     1.77584   1.67823   1.81532
F     1.17743   2.02663   3.00724
F     1.71515   2.80767   1.03822
C     1.04569   0.56417   1.20001
C     1.06182  -0.60057   0.83559
N    -1.62439  -1.11662   0.78013
C    -2.36623  -1.33348  -0.35509
C    -3.34384  -0.46646  -0.90750
C    -4.08357  -0.85213  -2.02741
C    -3.87464  -2.08810  -2.64436
C    -2.91392  -2.95689  -2.10137
C    -2.17922  -2.59786  -0.97902
O    -1.73198   0.16544   1.31911
C    -1.34627   1.28851   0.80158
C    -1.05126   1.69207  -0.55007
C    -1.05256   3.09222  -0.76263
C    -0.75586   3.62151  -2.01317
C    -0.42664   2.76474  -3.07106
C    -0.39043   1.38034  -2.86790
C    -0.70236   0.83860  -1.62470
H     1.77991  -3.94121   1.24604
H     0.16254  -3.17813   1.40993
H     1.48259  -2.71476   2.51604
H     3.72344  -2.52227   0.16295
H     3.42435  -0.81187  -0.17060
H     4.93101  -1.12641   1.68859
H     3.82141  -2.17443   2.55480
H     4.10983   0.02377   3.57307
H     2.42986  -0.33919   3.26103
H     3.67478   2.08939   2.65982
H     3.72872   1.28706   1.07817
H    -3.54497   0.49929  -0.44495
H    -4.83385  -0.16325  -2.42501
H    -4.44871  -2.37483  -3.52787
H    -2.73729  -3.93218  -2.56297
H    -1.43881  -3.28117  -0.56041
H    -1.42542   2.08277   1.55090
H    -1.29501   3.75605   0.06989
H    -0.77421   4.70237  -2.16621
H    -0.18627   3.17815  -4.05325
H    -0.11007   0.71363  -3.68588
H    -0.62530  -0.23334  -1.48191
