59
Generated by autodE on: 2022-06-06. E = -1471.908199 Ha
C    -2.87242   1.22452   3.51071
N    -2.52207   0.88289   2.14386
C    -1.39897   0.22076   1.86087
O    -0.61015  -0.16695   2.73022
C    -1.01619   0.05375   0.36185
C    -2.19112   0.27057  -0.57139
C    -3.29193  -0.60058  -0.50190
C    -4.38671  -0.42532  -1.34771
C    -4.40178   0.62745  -2.26942
C    -3.31609   1.50260  -2.33401
C    -2.21561   1.32711  -1.48828
O    -0.02667   1.04954   0.12278
C     1.26107   0.62127   0.52801
C     1.55242   1.05950   1.99465
C     1.01400   2.39745   2.41162
O     2.29974   0.40823   2.69405
C     2.30990   1.41485  -0.29749
O     3.51313   1.29543  -0.05339
N     1.82316   2.24726  -1.22043
C     2.69722   3.05240  -2.05284
C     1.29905  -0.93886   0.28047
C     2.10202  -1.71951   1.34220
C     3.60695  -1.65356   1.26486
O     1.54825  -2.47267   2.12191
C     1.84439  -1.30419  -1.14530
C     1.86137  -2.84236  -1.31671
C     0.35721  -3.20185  -1.45058
C    -0.33690  -1.83092  -1.34727
C     0.67185  -0.92717  -2.06475
C    -0.24826  -1.31441   0.13529
C    -0.82191  -2.33330   1.01449
N    -1.45631  -3.13496   1.56584
H    -2.94236   0.32025   4.13388
H    -3.84224   1.73546   3.51023
H    -2.11454   1.88886   3.95486
H    -3.12836   1.17603   1.38459
H    -3.29225  -1.42368   0.21495
H    -5.23216  -1.11403  -1.28568
H    -5.25985   0.76529  -2.93122
H    -3.32032   2.33159  -3.04531
H    -1.37792   2.01991  -1.54520
H     1.69976   3.16750   2.01620
H     1.01134   2.46339   3.50681
H     0.01929   2.60330   2.00134
H     0.81913   2.27031  -1.36267
H     3.32335   2.41930  -2.70138
H     2.08175   3.70708  -2.68104
H     3.36360   3.67076  -1.43274
H     4.01937  -1.86098   2.26069
H     3.95659  -2.44343   0.58067
H     3.96013  -0.68827   0.88887
H     2.80801  -0.82992  -1.35625
H     2.34710  -3.37822  -0.49247
H     2.41692  -3.09060  -2.23198
H     0.13370  -3.64266  -2.43220
H     0.01530  -3.91287  -0.68682
H    -1.36409  -1.82807  -1.72165
H     0.84262  -1.24846  -3.10241
H     0.40735   0.13338  -2.06647
