36
Generated by autodE on: 2022-06-06. E = -953.963589 Ha
C    -0.11983   3.67271  -0.16148
N    -0.32482   2.28798   0.22409
C    -0.72546   1.37977  -0.68156
O    -1.14563   1.66203  -1.80272
C    -0.77529  -0.04751  -0.17299
O     0.13385  -0.54729   0.59405
C     1.41630  -0.11309   0.84592
C     1.97282  -0.63101   2.05493
C     1.07917  -1.46503   2.94651
O     3.15197  -0.38657   2.40011
C     2.14379   0.50381  -0.26187
O     1.61941   0.63491  -1.38832
N     3.41140   0.88617   0.00095
C     4.29630   1.33966  -1.04962
C    -1.91393  -0.89883  -0.42621
C    -1.82974  -2.27967  -0.12043
C    -2.92544  -3.10941  -0.32088
C    -4.12017  -2.58479  -0.83265
C    -4.21413  -1.22315  -1.14267
C    -3.12448  -0.38078  -0.94636
H    -1.03371   4.08747  -0.60980
H     0.13690   4.25526   0.73114
H     0.69689   3.76052  -0.89721
H     0.11131   1.96527   1.08483
H     1.67527  -1.85046   3.78381
H     0.63153  -2.30399   2.39085
H     0.24816  -0.85880   3.34111
H     3.77362   0.59257   0.91242
H     4.62210   0.51782  -1.71152
H     3.79543   2.09356  -1.67439
H     5.18723   1.79345  -0.59664
H    -0.89303  -2.68879   0.25888
H    -2.85007  -4.17342  -0.08786
H    -4.97819  -3.24110  -0.99430
H    -5.14636  -0.81516  -1.53812
H    -3.20775   0.67777  -1.18545
