36
Generated by autodE on: 2022-07-27. E = -953.950966 Ha
C     1.80172   0.81720   1.77067
C     1.65787   0.47641   0.37328
C    -1.58797   0.68119  -1.95492
O     0.45897   0.26707  -0.22206
C    -2.55804   0.70487  -2.94990
C    -3.67920  -0.13122  -2.86278
C    -0.67739  -0.22001   0.15872
C    -1.72089  -0.19006  -0.84564
C    -2.85512  -1.03255  -0.77084
C    -3.82045  -0.99789  -1.77362
C    -0.76452  -0.96010   1.47102
O     0.18115  -1.67913   1.80422
N    -1.89590  -0.79993   2.17032
C    -2.13706  -1.43689   3.45082
C     0.61745   1.40114   2.51639
O     2.89833   0.76090   2.34413
C     2.74852   0.57404  -0.61175
O     3.92159   0.83477  -0.29382
N     2.40403   0.36877  -1.91023
C     3.37584   0.50971  -2.97290
H    -0.72442   1.34456  -2.01332
H    -2.44790   1.38609  -3.79624
H    -4.44235  -0.10558  -3.64375
H    -2.96775  -1.73375   0.05526
H    -4.68650  -1.65966  -1.70867
H    -2.59573  -0.15464   1.81444
H    -1.27312  -2.06062   3.70655
H    -3.03705  -2.06930   3.40631
H    -2.27937  -0.67732   4.23461
H     0.99074   2.29133   3.04456
H     0.25918   0.69458   3.28100
H    -0.22610   1.69613   1.87758
H     1.44153   0.15705  -2.14529
H     4.21428  -0.19498  -2.84946
H     2.88364   0.30243  -3.93124
H     3.79942   1.52724  -3.00825
