12
Generated by autodE on: 2022-10-06. E = -211.410635 Ha
C    -2.29008   0.17162   0.40599
C    -1.11678   0.57290  -0.43667
N    -0.03403  -0.01717  -0.36281
C     1.12442  -0.55281  -0.34936
C     2.23366  -0.08694   0.54282
H    -2.60540   1.03718   1.01187
H    -2.09867  -0.68930   1.07256
H    -3.14300  -0.06022  -0.25283
H     1.30638  -1.38045  -1.04699
H     3.10431   0.23698  -0.05418
H     2.58173  -0.90565   1.19606
H     1.90894   0.75174   1.17555
