10
Generated by autodE on: 2022-10-06. E = -455.051689 Ha
O     2.30206  -0.67080   0.89575
C     1.97321   0.07741  -0.06555
O     2.76884   0.68588  -0.83471
C     0.49815   0.28323  -0.34739
C    -0.49818  -0.28334   0.34737
C    -1.97324  -0.07726   0.06569
O    -2.30194   0.67011  -0.89633
O    -2.76891  -0.68521   0.83520
H     0.25553   0.94507  -1.18578
H    -0.25557  -0.94518   1.18577
