22
Generated by autodE on: 2022-10-06. E = -666.466470 Ha. Imaginary frequency = -173.8 cm-1
C    -1.95743  -2.35304  -1.09505
C    -0.86403  -1.39474  -0.85164
N     0.30596  -1.31302  -1.17572
C     1.48918  -0.77124  -1.13667
C     2.54168  -1.24769  -0.18360
C     0.43863   1.06887   0.40983
C     0.84224   2.07864  -0.61992
O    -0.00154   2.41211  -1.50608
O     2.02732   2.53075  -0.54920
C    -0.83171   0.59904   0.57820
C    -1.23572  -0.32756   1.69556
O    -2.47792  -0.50720   1.87341
O    -0.32361  -0.88119   2.37989
H    -1.60543  -3.38461  -1.26497
H    -2.51152  -2.02069  -1.98991
H    -2.66533  -2.32926  -0.25284
H     1.78457  -0.18066  -2.01026
H     3.22203  -0.41229   0.04440
H     3.15380  -2.06863  -0.60197
H     2.08257  -1.59720   0.75349
H     1.20839   0.77056   1.12429
H    -1.64550   1.02310  -0.01546
