19
Generated by autodE on: 2022-10-06. E = -568.917767 Ha
C     3.93240  -0.23457  -0.15490
N     2.53288   0.13044  -0.08725
C     1.53302  -0.77107  -0.06672
O     1.67143  -2.00206  -0.09551
C     0.18095  -0.20364  -0.00379
N    -0.93475  -0.91356   0.02176
C    -2.03891  -0.10272   0.07130
C    -3.44429  -0.57856   0.11087
C    -1.56282   1.22603   0.07777
O    -2.07022   2.34093   0.11278
O    -0.12512   1.09153   0.02767
H     4.48948   0.20026   0.68909
H     4.38956   0.12021  -1.09228
H     4.01829  -1.32636  -0.11184
H     2.28715   1.11619  -0.06650
H    -0.93480  -1.93441   0.00238
H    -3.65185  -1.18417   1.00923
H    -3.69902  -1.18953  -0.77133
H    -4.11258   0.29359   0.12648
