10
Generated by autodE on: 2022-10-06. E = -455.046477 Ha
O     2.57837   0.83411   0.80441
C     1.47831   0.31229   0.46323
O     1.10239  -0.85813   0.75507
C     0.55862   1.18425  -0.35951
C    -0.69732   0.87829  -0.72599
C    -1.46653  -0.39306  -0.41943
O    -2.08679  -0.43564   0.67389
O    -1.48130  -1.26502  -1.32688
H     0.98254   2.15190  -0.65206
H    -1.25866   1.60954  -1.32413
