29
Generated by autodE on: 2022-10-06. E = -1023.956515 Ha. Imaginary frequency = -415.4 cm-1
C     4.17895  -0.85666   1.09516
N     2.84940  -0.31893   0.88537
C     2.42202  -0.01305  -0.35179
O     3.12461  -0.08931  -1.36590
C     0.99054   0.41637  -0.46825
N     0.33255   1.21060   0.44625
C    -0.77406   1.69511  -0.17154
C    -1.86337   2.44912   0.48764
C    -0.55346   1.58078  -1.58847
O    -1.15272   2.00336  -2.56670
O     0.64298   0.86615  -1.71530
C    -1.45942  -0.71634  -0.65754
C    -2.65769  -0.47151   0.21190
O    -3.72467  -0.14622  -0.38953
O    -2.54365  -0.59682   1.46582
C    -0.21729  -1.23088  -0.25575
C     0.02586  -1.72167   1.17839
O     0.37849  -0.88766   2.08102
O    -0.09521  -2.95012   1.35672
H     4.93794  -0.19835   0.64787
H     4.36758  -0.92998   2.17350
H     4.29466  -1.85853   0.64708
H     2.12654  -0.46141   1.60098
H     0.28351   0.78832   1.39692
H    -1.60291   3.51460   0.60705
H    -2.77142   2.37966  -0.12579
H    -2.08144   2.02341   1.47714
H    -1.68690  -0.71871  -1.72670
H     0.31363  -1.82823  -1.00522
