12
Generated by autodE on: 2022-06-17. E = -381.636093 Ha
O     1.58892   2.13930   0.09659
C     0.85782   1.15540   0.05162
C    -0.61867   1.29524   0.04972
C    -1.41934   0.21627   0.00228
C    -0.85782  -1.15540  -0.05158
O    -1.58892  -2.13930  -0.09661
C     0.61867  -1.29524  -0.04973
C     1.41935  -0.21627  -0.00229
H    -1.00948   2.31468   0.08960
H    -2.50910   0.29435   0.00020
H     1.00949  -2.31468  -0.08963
H     2.50910  -0.29435  -0.00023
