33
Generated by autodE on: 2022-06-17. E = -910.725143 Ha. Imaginary frequency = -316.6 cm-1
C     4.35977   0.96472  -0.37985
N     2.92395   0.76845  -0.37188
C     2.40251  -0.43954  -0.09423
O     3.09110  -1.45211   0.07908
N     0.99854  -0.45857   0.05747
C    -0.19278   0.87225  -0.93493
C    -0.09141   2.07990  -0.06786
O     0.92325   2.77657  -0.04818
C    -1.25069   2.43907   0.77498
C    -2.41826   1.77964   0.68187
C    -2.60548   0.66061  -0.27787
O    -3.72261   0.16206  -0.43456
C    -1.42521   0.18276  -1.00107
C    -0.91016  -1.62471   0.22748
C    -1.90127  -2.66296  -0.20426
C    -1.10276  -1.07001   1.54101
N    -1.32369  -0.67053   2.61018
N     0.37362  -1.60626  -0.21667
C     0.70609  -2.36471  -1.43215
H     4.57000   1.99906  -0.67953
H     4.84888   0.28579  -1.09483
H     4.80661   0.78829   0.61322
H     2.31131   1.58693  -0.39221
H     0.45793   0.88276  -1.81158
H    -1.10363   3.27592   1.46151
H    -3.28595   2.04381   1.29100
H    -1.64030  -0.43949  -1.87161
H    -2.91134  -2.31242   0.04685
H    -1.85421  -2.84253  -1.28467
H    -1.72108  -3.61119   0.32903
H     1.78545  -2.31995  -1.58880
H     0.17767  -1.92518  -2.29329
H     0.40596  -3.41052  -1.30490
