59
Generated by autodE on: 2022-06-07. E = -1806.876439 Ha
C    -0.31507  -1.91816  -2.80614
C    -1.13736  -0.81492  -2.20760
O    -1.87220  -0.11545  -2.87473
C    -1.17383  -0.71901  -0.64903
C    -2.19620  -1.84428  -0.29309
C    -1.66795  -3.08535   0.36095
O    -3.35814  -1.72364  -0.62444
O     0.06305  -1.08477  -0.08136
C     0.91830   0.05910   0.07590
C     1.93019  -0.25632   1.16911
C     2.96277   0.65697   1.43211
C     3.88243   0.41064   2.45177
C     3.79208  -0.75964   3.21438
C     2.77481  -1.67768   2.94621
C     1.84623  -1.42714   1.92949
C     1.63131   0.25899  -1.27779
C     1.12720   1.05072  -2.32002
C     1.72487   1.03406  -3.58485
C     2.83649   0.22898  -3.83496
C     3.34826  -0.56577  -2.80438
C     2.75050  -0.55006  -1.54387
C    -0.10250   1.17418   0.54134
Cl    0.58404   2.80929   0.12804
C    -0.37215   1.17887   2.08061
C    -1.25429   2.37984   2.47161
C    -2.61537   2.03648   1.81427
C    -2.38316   0.61584   1.24096
C    -1.38556   0.04044   2.25814
C    -1.52179   0.72036  -0.06455
C    -2.24859   1.63287  -1.08361
C    -3.73495   1.42533  -1.24656
O    -1.68418   2.53508  -1.67325
H    -0.91874  -2.84177  -2.74872
H    -0.12399  -1.69730  -3.86370
H     0.61890  -2.09623  -2.26450
H    -0.84446  -3.50130  -0.23903
H    -1.25186  -2.86073   1.35319
H    -2.48289  -3.81445   0.44994
H     3.04257   1.56865   0.83904
H     4.67768   1.13354   2.64832
H     4.51537  -0.95498   4.00955
H     2.69860  -2.59820   3.52983
H     1.05476  -2.14718   1.72753
H     0.26224   1.68952  -2.16564
H     1.30789   1.65818  -4.37869
H     3.30141   0.21868  -4.82356
H     4.21575  -1.20567  -2.98213
H     3.15366  -1.19177  -0.76020
H     0.55395   1.11361   2.65840
H    -1.33457   2.40363   3.56787
H    -0.84612   3.34230   2.14611
H    -2.90023   2.77244   1.05099
H    -3.43067   2.00623   2.55096
H    -3.30700   0.05110   1.09302
H    -1.80024   0.01906   3.27626
H    -0.99691  -0.95163   2.02135
H    -4.04232   1.85582  -2.20832
H    -4.26819   1.95696  -0.44292
H    -4.00415   0.36551  -1.18972
