59
Generated by autodE on: 2022-06-07. E = -1806.805929 Ha. Imaginary frequency = -311.4 cm-1
C    -0.06399  -1.97662  -3.10448
C    -1.10458  -1.11783  -2.42091
O    -1.99449  -0.58143  -3.06431
C    -1.13686  -1.14841  -0.92607
C    -2.26139  -1.92568  -0.36588
C    -2.03961  -2.80778   0.83950
O    -3.37437  -1.87936  -0.89405
O     0.01002  -1.24924  -0.21420
C     1.05052  -0.40928  -0.18458
C     1.90517  -0.58836   0.99918
C     2.91372   0.36001   1.26954
C     3.69178   0.25611   2.42040
C     3.48923  -0.80034   3.31555
C     2.50075  -1.75333   3.04890
C     1.71326  -1.65009   1.90281
C     1.69750   0.03875  -1.45795
C     1.08432   0.85169  -2.42480
C     1.73965   1.14782  -3.62071
C     3.01280   0.63545  -3.88144
C     3.63155  -0.18068  -2.93075
C     2.98363  -0.47193  -1.73009
C    -0.25595   1.45184   0.55249
Cl    0.66783   2.80407  -0.08670
C    -0.26203   1.35233   2.07520
C    -1.18806   2.50094   2.57457
C    -2.59300   2.04339   2.09239
C    -2.29537   0.68407   1.37547
C    -1.17751   0.14011   2.28278
C    -1.54070   1.07024   0.10083
C    -2.26314   1.59584  -1.08495
C    -3.75108   1.37111  -1.13553
O    -1.69199   2.20162  -1.98821
H    -0.58740  -2.89979  -3.40930
H     0.29931  -1.47649  -4.01233
H     0.77603  -2.25778  -2.46147
H    -0.98940  -3.06163   1.01475
H    -2.43712  -2.30740   1.73611
H    -2.62945  -3.72292   0.68769
H     3.06476   1.19633   0.58723
H     4.46058   1.00555   2.62076
H     4.10355  -0.88315   4.21493
H     2.34492  -2.58813   3.73577
H     0.95616  -2.40491   1.69596
H     0.10008   1.27865  -2.25460
H     1.24396   1.78728  -4.35460
H     3.52036   0.86957  -4.82009
H     4.62383  -0.59572  -3.12124
H     3.47362  -1.12133  -1.00448
H     0.73195   1.32881   2.53439
H    -1.13543   2.56027   3.67138
H    -0.88680   3.47543   2.16726
H    -3.07361   2.77295   1.42654
H    -3.27418   1.86391   2.93731
H    -3.17707   0.05222   1.22967
H    -1.50400   0.03393   3.32722
H    -0.74189  -0.80173   1.95047
H    -4.14373   1.77601  -2.07696
H    -4.25174   1.86083  -0.28645
H    -3.96525   0.29405  -1.07003
