17
Generated by autodE on: 2022-06-01. E = -439.145382 Ha
C    -1.93384  -1.49829   0.24525
C    -0.74041  -0.70814  -0.12130
C    -0.42440   0.59019   0.08162
C    -1.18349   1.58973   0.71899
N    -1.80270   2.43021   1.24118
C     1.03665   0.73893  -0.44382
C     1.93795  -0.05680   0.52333
C     1.61739  -1.33773   0.31659
C     0.53186  -1.29930  -0.77961
O     0.97035  -0.16852  -1.55307
H    -2.36560  -1.98192  -0.64728
H    -2.70331  -0.88382   0.73293
H    -1.63988  -2.31467   0.92881
H     1.35285   1.74475  -0.73703
H     2.62379   0.38383   1.24594
H     1.96337  -2.23705   0.82445
H     0.38712  -2.19670  -1.39045
