30
Generated by autodE on: 2022-06-01. E = -850.651044 Ha
C     5.07791  -0.13963   0.59577
N     3.76758   0.45299   0.40892
C     2.65886  -0.30250   0.33892
O     2.67020  -1.54001   0.45278
C     1.36917   0.39370   0.11981
C     1.27951   1.77939  -0.10237
N     1.27346   2.93165  -0.29748
N     0.31883  -0.44808   0.05303
C    -0.98506  -0.36815  -0.12705
C    -1.76489   0.90073  -0.18018
O    -2.63769   1.06703  -1.04618
N    -1.51560   1.80052   0.78425
C    -2.09329   3.13121   0.75358
C    -1.62446  -1.70784  -0.27414
O    -0.94873  -2.72980  -0.06895
N    -2.91975  -1.72624  -0.62032
C    -3.63064  -2.96991  -0.83639
H     5.81632   0.66406   0.70048
H     5.10184  -0.76477   1.50145
H     5.36140  -0.77162  -0.26151
H     3.69684   1.45819   0.28587
H     0.64015  -1.43852   0.13609
H    -0.81017   1.60323   1.48664
H    -3.18655   3.07660   0.65040
H    -1.69302   3.71594  -0.09073
H    -1.84641   3.64470   1.69028
H    -3.33688  -0.84222  -0.90828
H    -3.29394  -3.47930  -1.75520
H    -3.47199  -3.65510   0.00865
H    -4.70265  -2.75578  -0.92534
