47
Generated by autodE on: 2022-06-01. E = -1289.786633 Ha. Imaginary frequency = -311.2 cm-1
C     1.44022   4.39580   1.85140
N     1.18634   3.66239   0.62680
C     0.32931   2.62122   0.60675
O    -0.30201   2.27628   1.61325
C     0.23239   1.88209  -0.68137
C     1.06886   2.25795  -1.76552
N     1.79846   2.54172  -2.63051
N    -0.79488   1.05219  -1.01288
C    -1.48359   0.20001  -0.22901
C    -2.23106   0.60517   1.01487
O    -2.32020  -0.15291   1.98923
N    -2.94950   1.73596   0.89587
C    -3.62697   2.31500   2.04011
C    -2.09480  -0.90863  -1.03820
O    -1.85563  -0.98632  -2.25270
N    -2.84622  -1.79281  -0.36678
C    -3.36408  -2.98962  -0.99983
C     0.39458  -0.86581   0.62124
C     0.67993  -1.92971  -0.46255
O     1.22268  -1.10564  -1.50250
C     2.26138  -0.51818  -0.70074
C     2.97202  -1.78354  -0.17109
C     4.40835  -1.85358   0.16872
C     1.96978  -2.68092  -0.02943
C     2.02736  -3.98767   0.49216
N     2.05733  -5.07434   0.91696
C     1.43602   0.02888   0.47241
H     1.78675   3.72265   2.65092
H     0.53272   4.90787   2.20971
H     2.21576   5.14640   1.65815
H     1.66387   3.94999  -0.22061
H    -0.73646   0.65892  -1.96358
H    -2.72309   2.35391   0.12274
H    -4.23270   1.55235   2.54768
H    -4.28565   3.12210   1.69610
H    -2.90478   2.72612   2.76551
H    -2.89488  -1.69538   0.64574
H    -2.56353  -3.72185  -1.19978
H    -4.10544  -3.45088  -0.33595
H    -3.84603  -2.73965  -1.95540
H    -0.16302  -1.06575   1.53379
H    -0.14004  -2.55969  -0.81597
H     2.88028   0.18277  -1.27056
H     5.02511  -1.62407  -0.71660
H     4.69299  -2.83817   0.56493
H     4.64672  -1.08163   0.92177
H     1.84227   0.69298   1.23104
