30
Generated by autodE on: 2022-07-27. E = -746.082877 Ha
C    -2.55691   1.51805   1.16794
O    -1.43258   1.07602   0.40985
C    -1.45568  -0.22028  -0.02541
O    -2.44061  -0.92887   0.18200
C    -0.25869  -0.60278  -0.71401
C     0.03289  -1.90300  -1.23098
C    -1.00767  -2.99919  -1.14659
O     1.14425  -2.15719  -1.74613
N     0.79946   0.36198  -0.86405
C     1.22553   0.68366  -2.24087
C     1.32271   1.01358   0.13025
C     2.31185   2.10349  -0.07996
C     0.96491   0.65003   1.56550
C     0.62920   1.78380   2.48842
O     1.05596  -0.50563   1.92765
H    -2.35025   2.55984   1.44115
H    -3.47974   1.46544   0.57128
H    -2.68247   0.91151   2.07721
H    -0.59902  -3.89678  -1.63087
H    -1.25524  -3.22607  -0.09856
H    -1.94810  -2.70465  -1.63443
H     0.67904   0.04311  -2.93516
H     0.98852   1.73757  -2.44726
H     2.30514   0.52520  -2.35299
H     2.66351   2.51158   0.87399
H     1.86006   2.91748  -0.67217
H     3.17736   1.72867  -0.64915
H     0.25762   2.66588   1.95119
H    -0.11076   1.43687   3.22246
H     1.54436   2.06775   3.03590
