50
Generated by autodE on: 2022-06-22. E = -1203.786411 Ha. Imaginary frequency = -410.7 cm-1
C    -4.07325   1.81103   1.60138
O    -2.98697   1.45186   0.75336
C    -2.86410   0.11701   0.45681
O    -3.74471  -0.66813   0.81458
C    -1.65890  -0.17910  -0.27191
C    -1.50498  -1.37550  -1.03346
C    -2.54739  -2.47945  -0.95523
O    -0.52652  -1.56159  -1.80011
C     1.09752  -1.14255   1.25606
C     1.58016   0.18720   1.22920
C     2.80956   0.41829   0.36187
C     2.75643  -0.43975  -0.87989
C     3.47347  -0.09470  -2.13504
N     4.28404   0.98440  -2.08152
O     3.33782  -0.75488  -3.17709
C     2.07186  -1.60033  -0.85335
N     1.35025  -2.00580   0.27206
C     0.82240  -3.36988   0.30543
C     0.04100   1.33964   0.66938
C     0.75278   2.65352   0.41325
C    -0.69902   1.31520   2.03434
C    -1.00216   2.64285   2.67727
O    -0.96614   0.27541   2.60747
N    -0.68178   0.85680  -0.40662
C    -0.29275   1.26006  -1.75542
H    -3.99602   2.89376   1.75978
H    -5.03977   1.57375   1.13169
H    -4.01025   1.28749   2.56782
H    -3.55790  -2.11546  -1.19019
H    -2.59699  -2.91075   0.05553
H    -2.26364  -3.26171  -1.67321
H     0.46942  -1.50602   2.06649
H     1.65912   0.62573   2.22735
H     2.90531   1.48000   0.10596
H     3.71971   0.17432   0.94418
H     4.80369   1.24311  -2.91395
H     4.44965   1.50381  -1.22851
H     2.04700  -2.28302  -1.69923
H     1.63739  -4.08127   0.50658
H     0.06791  -3.44492   1.09645
H     0.36287  -3.60295  -0.66131
H     1.42024   2.60129  -0.45256
H     0.01145   3.44099   0.20959
H     1.34677   2.95193   1.28504
H    -1.39260   3.37354   1.95848
H    -0.06879   3.05450   3.09499
H    -1.71496   2.48698   3.49636
H    -0.33652   2.35313  -1.87103
H     0.72508   0.91793  -2.01160
H    -0.99225   0.81586  -2.46881
