53
Generated by autodE on: 2022-06-14. E = -4136.225901 Ha
C    -3.89581  -1.48709  -2.83840
N    -2.72338  -1.16288  -2.04879
C    -2.54149  -1.57796  -0.78853
O    -3.28537  -2.32432  -0.16168
C    -1.27043  -1.01858  -0.13725
O    -0.96738  -1.82602   1.05961
C     0.34875  -1.60760   1.32339
O     0.90229  -2.10950   2.24235
C     0.84410  -0.64657   0.19737
C     2.32033  -0.64750  -0.11965
C     2.74732  -0.36327  -1.42767
C     4.10752  -0.30910  -1.73512
C     5.06205  -0.53742  -0.74040
C     4.64410  -0.82168   0.56189
C     3.28348  -0.87546   0.87410
N    -0.06216  -1.06151  -0.90078
C     0.24250  -2.36376  -1.51210
C     0.20571   0.78377   0.52338
C     0.77342   1.76842  -0.53208
O     1.63114   2.56909  -0.22919
O     0.30821   1.60785  -1.75056
C     0.82583   2.48390  -2.76823
C     0.64463   1.39824   1.86373
O     1.49250   0.93896   2.58844
O     0.00730   2.54434   2.06210
C     0.29581   3.24007   3.28360
C    -1.32551   0.44495   0.46296
Br   -2.40728   1.75384  -0.54013
C    -2.00919   0.30617   1.84585
O    -1.42810   0.37710   2.90387
O    -3.28510   0.01392   1.70542
C    -4.01755  -0.33736   2.89350
H    -3.59694  -1.87402  -3.82340
H    -4.52692  -0.59607  -2.98543
H    -4.47865  -2.25259  -2.31305
H    -2.03026  -0.53686  -2.44887
H     2.01587  -0.18429  -2.21425
H     4.41886  -0.08808  -2.75839
H     6.12709  -0.49464  -0.97968
H     5.38117  -1.00183   1.34764
H     2.97258  -1.08981   1.89250
H     1.19761  -2.29898  -2.04288
H     0.30214  -3.18649  -0.77841
H    -0.53538  -2.60303  -2.24604
H     1.91178   2.34820  -2.86471
H     0.60160   3.52896  -2.51323
H     0.31632   2.19467  -3.69352
H     0.02712   2.61251   4.14540
H    -0.31895   4.14678   3.26565
H     1.36251   3.50067   3.33127
H    -4.02886   0.50816   3.59473
H    -3.55478  -1.21378   3.36805
H    -5.03240  -0.57258   2.55582
