29
Generated by autodE on: 2022-07-27. E = -800.070493 Ha
C    -5.08978  -1.66016  -0.02189
N    -3.75038  -1.26475   0.36498
C    -2.86546  -0.82101  -0.54774
O    -3.12882  -0.70181  -1.75220
C    -1.53855  -0.48992   0.00117
O    -1.24615  -0.71514   1.28579
C     0.09641  -0.31528   1.53913
O     0.56535  -0.42727   2.66369
C     0.57259   0.14374   0.28502
C     1.92200   0.62281   0.00155
C     2.58709   0.36814  -1.21641
C     3.88905   0.82600  -1.42457
C     4.56307   1.53114  -0.42284
C     3.92110   1.77381   0.79636
C     2.61676   1.32894   1.00767
N    -0.47852   0.02545  -0.61448
C    -0.45602   0.48533  -2.00636
H    -5.61898  -0.83150  -0.51757
H    -5.06996  -2.51379  -0.71845
H    -5.64531  -1.94925   0.87788
H    -3.46420  -1.34737   1.33521
H     2.09852  -0.21330  -1.99808
H     4.38515   0.61652  -2.37528
H     5.58358   1.88382  -0.58855
H     4.43759   2.32174   1.58815
H     2.12130   1.52887   1.95840
H     0.23392   1.33222  -2.07808
H    -1.46542   0.78936  -2.29093
H    -0.11995  -0.32560  -2.66535
