24
Generated by autodE on: 2022-06-14. E = -3336.147315 Ha
C     4.08728   0.20309   0.60324
O     2.76764  -0.37051   0.58850
C     1.83789   0.29775  -0.06725
O     2.02003   1.35313  -0.64053
C     0.48710  -0.37232  -0.04261
Br    0.49027  -2.23670   0.27008
C    -0.62905   0.35923  -0.23944
C    -2.02513  -0.18406  -0.27968
O    -2.33998  -1.32118  -0.54229
O    -2.89303   0.78849   0.01452
C    -4.28714   0.44243  -0.00733
C    -0.54826   1.84873  -0.48647
O    -0.78369   2.34242  -1.56619
O    -0.26475   2.52260   0.62099
C    -0.11935   3.94675   0.48517
H     4.46773   0.29935  -0.42335
H     4.70733  -0.49164   1.18003
H     4.06436   1.19105   1.08423
H    -4.57585   0.09570  -1.00984
H    -4.49424  -0.34653   0.72953
H    -4.82788   1.35951   0.25121
H    -1.04227   4.39101   0.08691
H     0.72171   4.17272  -0.18609
H     0.08402   4.32537   1.49299
