53
Generated by autodE on: 2022-06-14. E = -4136.214238 Ha. Imaginary frequency = -256.8 cm-1
C    -4.13272  -3.46657  -0.45834
N    -2.84030  -2.90456  -0.11681
C    -2.30003  -1.93135  -0.86900
O    -2.71139  -1.60803  -1.98277
C    -1.08693  -1.26830  -0.26295
O    -0.76688  -1.65711   1.01014
C     0.59118  -1.49898   1.21315
O     1.11254  -1.69951   2.28599
C     1.13265  -1.13962  -0.09731
C     2.53812  -0.86759  -0.36370
C     3.17424  -1.20405  -1.57519
C     4.51373  -0.87467  -1.77727
C     5.23566  -0.20508  -0.78477
C     4.61529   0.12138   0.42595
C     3.28117  -0.21252   0.64304
N     0.10854  -1.18736  -0.96521
C     0.17819  -1.01879  -2.41822
C    -0.24741   1.20987   0.81675
C     0.85471   1.95740   0.16226
O     1.54682   2.79754   0.71011
O     1.02880   1.62501  -1.11926
C     2.05728   2.31027  -1.84027
C    -0.22561   1.02530   2.28369
O    -1.16577   0.56469   2.91893
O     0.93385   1.33383   2.86991
C     1.02301   1.08977   4.28050
C    -1.43449   0.80349   0.15662
Br   -1.93095   1.61876  -1.53751
C    -2.73599   0.71638   0.96020
O    -3.42618  -0.27056   1.07242
O    -3.07401   1.92161   1.41185
C    -4.27998   1.99852   2.18683
H    -4.94259  -2.73529  -0.29266
H    -4.15039  -3.76787  -1.51437
H    -4.31602  -4.34868   0.16722
H    -2.52085  -2.98936   0.84285
H     2.64030  -1.74810  -2.35126
H     4.99709  -1.14656  -2.71791
H     6.28255   0.05749  -0.95228
H     5.17237   0.64526   1.20540
H     2.79816   0.06280   1.57949
H     0.88360  -0.21960  -2.65963
H    -0.81995  -0.77629  -2.78373
H     0.50704  -1.96562  -2.86705
H     1.86174   3.39207  -1.85728
H     2.03155   1.90499  -2.85825
H     3.03800   2.12037  -1.38150
H     0.85777   0.02511   4.49535
H     0.28348   1.69486   4.82419
H     2.03883   1.38352   4.56893
H    -5.14187   1.65981   1.59442
H    -4.39507   3.05392   2.45853
H    -4.18558   1.37953   3.09096
