54
Generated by autodE on: 2022-10-22. E = -1562.847521 Ha
C    -3.28535  -2.39792   2.59512
N    -2.81352  -1.63514   1.45439
C    -1.63096  -1.00592   1.47205
O    -0.88277  -1.01805   2.45007
C    -1.19736  -0.30216   0.14073
C    -2.30709   0.58454  -0.44560
C    -2.25948   0.99576  -1.78887
C    -3.19807   1.89669  -2.29301
C    -4.19038   2.42525  -1.46105
C    -4.22520   2.05238  -0.11685
C    -3.28928   1.14304   0.38633
N     0.00395   0.51523   0.30445
C    -0.03100   1.62087   1.24295
C     1.24269  -0.17648  -0.02671
C     1.74388  -0.99756   1.19110
O     1.77241  -2.20262   1.29870
O     2.11038  -0.16297   2.16487
C     2.46386  -0.75494   3.42302
C     2.35264   0.74265  -0.53088
C     2.05052   1.95997  -1.15423
C     3.07213   2.75797  -1.67406
C     4.40443   2.34187  -1.58886
C     4.70908   1.11920  -0.98392
C     3.68787   0.32399  -0.45832
C     0.75622  -1.07642  -1.19905
F     0.60613  -0.26590  -2.32551
O     1.62069  -2.07948  -1.48033
C     1.24138  -3.00576  -2.50992
C    -0.69268  -1.46252  -0.79544
F    -1.48652  -1.68783  -1.86585
F    -0.63879  -2.64619  -0.12261
H    -3.36304  -1.76088   3.48998
H    -2.60010  -3.22920   2.82630
H    -4.27609  -2.80661   2.36274
H    -3.38437  -1.59492   0.61626
H    -1.48064   0.62109  -2.44896
H    -3.14756   2.19222  -3.34356
H    -4.92343   3.13180  -1.85720
H    -4.97852   2.47342   0.55287
H    -3.32595   0.88831   1.44521
H    -0.21062   1.30458   2.28229
H     0.92306   2.15890   1.21009
H    -0.82335   2.32769   0.95199
H     3.32763  -1.42445   3.30431
H     1.61106  -1.31934   3.82593
H     2.71740   0.07878   4.08753
H     1.01182   2.27981  -1.23731
H     2.82430   3.70860  -2.15211
H     5.20263   2.96761  -1.99500
H     5.74564   0.78079  -0.91840
H     3.93972  -0.63303   0.00375
H     0.44854  -3.68147  -2.15737
H     2.14119  -3.58985  -2.73814
H     0.91075  -2.47529  -3.41413
