44
Generated by autodE on: 2022-10-26. E = -1071.738367 Ha
C    -0.80140  -2.38617   2.80919
N    -1.06590  -1.71043   1.55226
C    -0.85253  -0.39709   1.41441
O    -0.56261   0.37883   2.33223
C    -1.12608   0.20393   0.04606
C    -2.51904   0.42343  -0.33889
C    -2.94362   0.24425  -1.67080
C    -4.28483   0.41973  -2.00613
C    -5.21521   0.77868  -1.02467
C    -4.80334   0.94671   0.30247
C    -3.46750   0.75946   0.64937
N    -0.08212   0.58393  -0.65675
C    -0.15819   1.59223  -1.72569
C     1.15002  -0.09364  -0.46501
C     1.08866  -1.50670  -0.64889
O     0.07731  -2.16650  -0.95935
O     2.27842  -2.14094  -0.45508
C     2.28319  -3.55649  -0.62868
C     2.32334   0.72367  -0.15371
C     3.63894   0.40427  -0.56106
C     4.71364   1.22982  -0.23101
C     4.51664   2.40659   0.50132
C     3.22112   2.74303   0.90687
C     2.14435   1.91377   0.59203
H     0.27945  -2.44022   3.02291
H    -1.28846  -1.85003   3.63520
H    -1.20337  -3.40575   2.75928
H    -1.02236  -2.24803   0.68251
H    -2.22853  -0.06918  -2.43147
H    -4.60762   0.26773  -3.03829
H    -6.26492   0.91852  -1.29243
H    -5.52825   1.22274   1.07107
H    -3.14552   0.89577   1.68327
H     0.76742   2.17850  -1.70136
H    -1.01621   2.25440  -1.56564
H    -0.23361   1.09676  -2.70287
H     3.31392  -3.88083  -0.43725
H     1.99062  -3.83630  -1.65204
H     1.60162  -4.04614   0.08364
H     3.81405  -0.49543  -1.14857
H     5.71886   0.95577  -0.56215
H     5.36204   3.05121   0.75275
H     3.04652   3.65351   1.48610
H     1.14529   2.17250   0.94865
