44
Generated by autodE on: 2022-10-22. E = -1071.737487 Ha
C     2.45743  -1.89689   2.83389
N     2.24737  -0.95158   1.75637
C     1.21044  -1.07094   0.90945
O     0.39976  -2.00394   0.98762
C     1.14690  -0.03851  -0.18158
C     2.38988   0.53011  -0.71989
C     2.51643   1.92152  -0.90845
C     3.70122   2.46362  -1.40480
C     4.78008   1.63001  -1.71873
C     4.66971   0.24837  -1.52572
C     3.48864  -0.29895  -1.02649
N    -0.04360   0.29222  -0.68507
C    -0.14261   0.83786  -2.05603
C    -1.21154   0.23265   0.06410
C    -1.13987   0.61969   1.45022
O    -0.15961   1.08584   2.03910
O    -2.32240   0.45926   2.10120
C    -2.37126   0.91954   3.45067
C    -2.43506  -0.27474  -0.57769
C    -2.36419  -1.45110  -1.35452
C    -3.49478  -1.96080  -1.99503
C    -4.72910  -1.31671  -1.86288
C    -4.81728  -0.15422  -1.08742
C    -3.68587   0.36453  -0.45768
H     3.36479  -1.61503   3.38145
H     1.60394  -1.89829   3.53138
H     2.57832  -2.91988   2.44481
H     2.86325  -0.15012   1.66960
H     1.68730   2.57781  -0.63940
H     3.78658   3.54444  -1.53849
H     5.70746   2.05660  -2.10762
H     5.50821  -0.40770  -1.77001
H     3.40525  -1.37858  -0.88877
H     0.70455   0.49285  -2.65738
H    -1.07565   0.48529  -2.50524
H    -0.16227   1.93471  -2.02130
H    -2.18847   2.00346   3.50794
H    -1.62719   0.39929   4.07270
H    -3.38264   0.69439   3.81140
H    -1.40878  -1.97431  -1.43524
H    -3.41351  -2.87411  -2.58983
H    -5.61650  -1.71724  -2.35859
H    -5.77569   0.36053  -0.98231
H    -3.76367   1.28128   0.12794
