10
Generated by autodE on: 2022-10-22. E = -491.033035 Ha
C    -2.48112  -0.23927   0.09950
O    -1.28132   0.15894   0.79794
C    -0.14634  -0.32637   0.30100
F     0.04842  -1.64908   0.44209
C     0.79277   0.41581  -0.28619
F     0.67517   1.71613  -0.48310
F     1.95872  -0.05393  -0.69294
H    -3.31331   0.27285   0.59724
H    -2.62215  -1.32847   0.16408
H    -2.42166   0.07093  -0.95534
