48
Generated by autodE on: 2022-06-02. E = -1074.865906 Ha
C     1.53553  -0.27498   2.63906
C     0.63715   0.46772   1.64093
C     0.58388   1.86786   2.15444
N     0.51462   2.89126   2.70008
N    -0.70374  -0.10180   1.59636
C    -1.38144   0.50857   0.45644
C    -2.71947  -0.11668   0.14701
C    -3.67617   0.63190  -0.55570
C    -4.90725   0.07169  -0.90490
C    -5.20487  -1.24714  -0.54464
C    -4.26245  -1.99672   0.16578
C    -3.02748  -1.43610   0.50623
C    -0.30973   0.41623  -0.68235
C    -0.58083  -0.70878  -1.67607
C    -0.19332   1.78719  -1.42563
C     0.86073   1.65063  -2.51500
C     2.03200   1.63787  -1.86877
C     1.67718   1.77735  -0.39012
O     0.49587   2.58881  -0.45667
C     1.08157   0.40809   0.11206
C     2.01452  -0.76993  -0.10129
C     1.55095  -2.09528  -0.02995
C     2.42380  -3.17675  -0.16222
C     3.79147  -2.96096  -0.35632
C     4.27398  -1.65134  -0.39834
C     3.39539  -0.57145  -0.26669
H     2.56262   0.11404   2.59976
H     1.55160  -1.34670   2.41355
H     1.14642  -0.13524   3.65860
H    -1.20957   0.04288   2.47109
H    -1.56456   1.58376   0.63845
H    -3.45020   1.66589  -0.82940
H    -5.63993   0.66841  -1.45384
H    -6.16937  -1.68591  -0.81151
H    -4.48844  -3.02580   0.45626
H    -2.29294  -2.02470   1.05723
H     0.29976  -0.91352  -2.29838
H    -1.40780  -0.41331  -2.34039
H    -0.87949  -1.64282  -1.18820
H    -1.15735   2.23098  -1.70057
H     0.66459   1.50718  -3.57706
H     3.03208   1.49277  -2.27312
H     2.42715   2.22803   0.26909
H     0.49678  -2.28779   0.15787
H     2.03126  -4.19496  -0.10567
H     4.47555  -3.80626  -0.46204
H     5.34227  -1.46248  -0.52869
H     3.81063   0.43629  -0.27720
