59
Generated by autodE on: 2022-10-23. E = -1554.836025 Ha
C     3.90008  -7.81324   7.66709
O     2.71187  -7.65286   6.89283
C     2.81677  -7.07045   5.63520
F     3.30466  -5.73981   5.80681
C     3.82101  -7.74813   4.72885
C     3.83348  -7.21306   3.29246
C     3.22793  -8.20348   2.30357
C     1.85410  -8.75740   2.67624
C     0.65588  -7.75225   2.81448
C    -0.62684  -8.61168   2.66242
C    -0.81310  -9.68343   3.55440
C    -1.93365 -10.50963   3.46546
C    -2.89771 -10.28364   2.47722
C    -2.73209  -9.21546   1.59457
C    -1.61156  -8.38399   1.69059
C     0.80647  -6.68812   1.71314
C     1.03258  -5.33603   1.99653
C     1.24598  -4.40945   0.97018
C     1.24309  -4.82110  -0.36327
C     1.03435  -6.17229  -0.66043
C     0.82513  -7.09301   0.36675
C     0.54533  -7.09622   4.18981
C     1.37710  -6.86192   5.22365
C     0.48443  -6.22711   6.34450
C     1.09279  -5.49715   7.44409
N     1.49212  -4.89415   8.34921
N    -0.54922  -5.48742   5.60273
C    -0.85361  -6.62405   4.74044
C    -2.03740  -6.29858   3.82700
C    -3.34286  -6.96188   4.11831
O    -1.88123  -5.42357   2.99917
O    -1.23305  -7.62137   5.74761
C    -0.40720  -7.41640   6.79305
O    -0.40298  -8.05283   7.80696
H     4.49412  -6.88746   7.67610
H     3.56670  -8.03668   8.68884
H     4.51518  -8.64862   7.29838
H     4.79756  -7.58720   5.20524
H     3.63256  -8.83092   4.75805
H     3.30370  -6.24914   3.24629
H     4.86862  -6.99758   2.98816
H     3.90293  -9.07317   2.22266
H     3.19391  -7.74989   1.30241
H     1.91767  -9.34179   3.60425
H     1.56589  -9.47308   1.89332
H    -0.07733  -9.87112   4.33778
H    -2.05464 -11.33267   4.17360
H    -3.77507 -10.93032   2.40435
H    -3.48369  -9.01457   0.82772
H    -1.52314  -7.54147   1.00768
H     1.05004  -4.98973   3.02923
H     1.41648  -3.35990   1.22142
H     1.40807  -4.09832  -1.16575
H     1.04054  -6.51416  -1.69815
H     0.68257  -8.14509   0.11524
H    -0.11450  -4.74985   5.04050
H    -3.68295  -6.61769   5.11036
H    -3.23556  -8.05314   4.17851
H    -4.07809  -6.68094   3.35482
