59
Generated by autodE on: 2022-10-23. E = -1554.780427 Ha. Imaginary frequency = -368.9 cm-1
C     3.55513  -8.02449   8.09400
O     2.44882  -7.84995   7.21055
C     2.70668  -7.31116   5.96216
F     3.20875  -5.99646   6.14676
C     3.75254  -8.05429   5.13076
C     3.91268  -7.47989   3.71004
C     3.35825  -8.34962   2.57490
C     1.90941  -8.84159   2.65060
C     0.76195  -7.77011   2.76937
C    -0.56772  -8.50560   2.49463
C    -0.92443  -9.57232   3.33866
C    -2.08350 -10.31461   3.11031
C    -2.91738 -10.00309   2.03025
C    -2.58639  -8.93104   1.20081
C    -1.42541  -8.18524   1.43441
C     1.04061  -6.62655   1.78632
C     1.19348  -5.29954   2.20463
C     1.49366  -4.28529   1.28863
C     1.65373  -4.58401  -0.06527
C     1.51899  -5.90917  -0.49433
C     1.22095  -6.91781   0.42271
C     0.75935  -7.26802   4.18235
C     1.42518  -7.17814   5.23761
C     0.08659  -6.02203   6.65847
C     0.81419  -5.33381   7.66037
N     1.39454  -4.78663   8.50642
N    -0.57230  -5.40259   5.62329
C    -1.15739  -6.39163   4.90527
C    -2.12456  -6.06504   3.80811
C    -3.38975  -6.85767   3.76851
O    -1.86434  -5.12887   3.07339
O    -1.44319  -7.41642   5.77131
C    -0.62668  -7.28223   6.89152
O    -0.60404  -8.09444   7.78001
H     3.12466  -8.23458   9.08185
H     4.16329  -7.10942   8.15398
H     4.18977  -8.87254   7.79187
H     4.70266  -7.98657   5.67941
H     3.46576  -9.11679   5.10915
H     3.46606  -6.47493   3.66769
H     4.98444  -7.32939   3.50884
H     3.98122  -9.25817   2.50116
H     3.50817  -7.80697   1.62851
H     1.79367  -9.53987   3.49166
H     1.71027  -9.42685   1.73990
H    -0.29120  -9.82299   4.19161
H    -2.33801 -11.13874   3.78094
H    -3.82433 -10.58401   1.84773
H    -3.23826  -8.66020   0.36694
H    -1.20194  -7.34118   0.78425
H     1.08784  -5.04792   3.25913
H     1.60442  -3.25731   1.64192
H     1.88792  -3.79322  -0.78180
H     1.65085  -6.16068  -1.54943
H     1.12852  -7.94676   0.07131
H    -0.24671  -4.54709   5.17112
H    -3.99363  -6.56271   4.64515
H    -3.19613  -7.93430   3.86140
H    -3.94186  -6.63513   2.84830
