16
Generated by autodE on: 2022-06-03. E = -806.483309 Ha
C    -2.30770  -0.53472   0.72944
C    -0.98666  -0.41890   0.06655
C    -0.13484   0.60455  -0.06892
Cl   -0.27192   2.22749   0.50565
C     1.15390   0.03257  -0.70060
C     1.80647  -0.88118   0.36552
C     0.96802  -1.91504   0.48336
C    -0.17744  -1.61221  -0.51143
O     0.56312  -0.95517  -1.56207
H    -3.06648  -0.94659   0.04281
H    -2.24534  -1.22972   1.58591
H    -2.65668   0.44045   1.09867
H     1.79744   0.73664  -1.23880
H     2.72042  -0.65370   0.91305
H     1.00565  -2.77159   1.15565
H    -0.76327  -2.46007  -0.88422
