35
Generated by autodE on: 2022-06-03. E = -895.000090 Ha
C    -0.75169  -2.75866   2.07204
N    -0.81723  -1.77285   1.00815
C    -0.59479  -0.48375   1.22644
O    -0.39545   0.06590   2.31654
C    -0.70732   0.46138   0.04962
C    -2.01840   1.20855  -0.09841
O    -2.58516   1.22328  -1.19023
N    -2.46758   1.78092   1.02138
C    -3.72919   2.49910   1.05354
N     0.29949   0.69121  -0.72364
C     0.27324   1.74240  -1.75673
C     1.42549  -0.21757  -0.76030
C     2.66047   0.22529  -0.17169
C     2.62006   1.51463   0.63227
O     3.71991  -0.42358  -0.23235
C     1.14421  -1.47444  -1.37654
C     2.27650  -2.43986  -1.63475
O    -0.02682  -1.81279  -1.68630
H    -1.35197  -3.63257   1.78953
H    -1.15060  -2.32815   2.99977
H     0.28594  -3.08280   2.25319
H    -0.80738  -2.07106   0.02515
H    -1.92857   1.65478   1.87648
H    -4.58061   1.81059   0.93274
H    -3.76877   3.24085   0.24256
H    -3.81779   3.01319   2.01731
H    -0.30018   2.61251  -1.41783
H    -0.18145   1.31616  -2.66161
H     1.30671   2.02829  -1.97529
H     1.88509   1.43122   1.44905
H     2.32578   2.37811   0.01564
H     3.61615   1.70151   1.05402
H     2.69118  -2.79861  -0.67963
H     1.88121  -3.29184  -2.20449
H     3.10593  -1.96579  -2.17674
