51
Generated by autodE on: 2022-06-03. E = -1701.454637 Ha. Imaginary frequency = -189.5 cm-1
C    -2.25515  -2.62302  -2.92327
N    -1.81598  -2.26084  -1.59283
C    -1.67003  -0.96923  -1.24011
O    -1.88438  -0.05953  -2.06535
C    -1.23493  -0.68635   0.14305
C    -0.97454  -1.82752   1.08401
O    -1.55500  -2.92606   0.99672
N    -0.01639  -1.61671   2.00297
C     0.40360  -2.66486   2.91021
C     1.06890  -0.28015  -1.08976
C     2.11745  -0.81112  -0.10094
O     1.99342   0.17533   0.95297
C     2.21643   1.31377   0.09483
C     3.55437   0.87959  -0.53611
Cl    4.74484   2.00217  -1.08360
C     3.51167  -0.45196  -0.67417
C     4.43138  -1.41824  -1.31996
C     1.13101   1.08255  -0.97471
C    -1.02633   1.73968  -0.00274
C    -1.71347   2.10555  -1.31880
C    -3.21855   2.16698  -1.20246
O    -1.12572   2.61546  -2.25811
C    -0.60314   2.96949   0.71372
C     0.11819   2.93389   2.04369
O    -0.75016   4.06316   0.16109
N    -1.27703   0.57600   0.67561
C    -1.70781   0.68581   2.10912
H    -2.25455  -3.71668  -3.00981
H    -3.27207  -2.25204  -3.13674
H    -1.58150  -2.20734  -3.68828
H    -1.79029  -2.94992  -0.84092
H     0.56631  -0.78361   1.91467
H     1.17576  -2.26296   3.57787
H     0.81778  -3.52853   2.36352
H    -0.44241  -3.02262   3.51684
H     0.69123  -0.85466  -1.93076
H     2.00126  -1.83247   0.27603
H     2.22728   2.26022   0.63996
H     3.93143  -1.90848  -2.17412
H     5.34017  -0.92072  -1.68776
H     4.72232  -2.22038  -0.62093
H     0.82600   1.82578  -1.70715
H    -3.46279   3.14011  -0.74164
H    -3.67132   2.12689  -2.20265
H    -3.62592   1.37363  -0.56352
H     0.85994   3.74457   2.03017
H     0.61090   1.98308   2.26884
H    -0.59802   3.15651   2.84999
H    -2.27881   1.61157   2.21830
H    -0.87591   0.67338   2.81490
H    -2.37963  -0.14904   2.32827
