44
Generated by autodE on: 2022-06-22. E = -1274.406207 Ha. Imaginary frequency = -383.8 cm-1
C    -1.43841   5.02433   0.89098
O    -0.80398   3.73495   0.76399
C    -0.71319   3.23634  -0.45920
O    -1.08203   3.76887  -1.48352
C    -0.17230   1.86331  -0.46047
N     0.91252   1.34731  -0.30180
C     1.44235   0.11567  -0.38627
C     1.55983  -0.65642   0.86000
O     2.00014  -1.78971   0.94566
O     1.07567   0.03083   1.90633
C     1.05106  -0.64401   3.17148
C     2.12104  -0.28644  -1.62084
O     2.61888  -1.38199  -1.82311
O     2.10027   0.69343  -2.54190
C     2.64924   0.37215  -3.82569
C    -0.72300  -0.73375  -1.47584
C    -0.66761  -2.12967  -0.92269
C    -1.18175  -2.14975   0.50000
C    -0.92064  -3.27890   1.40754
N    -0.30484  -4.35641   0.86750
O    -1.24656  -3.27317   2.61306
C    -1.94682  -1.12496   0.96153
N    -2.29000  -0.02579   0.22035
C    -3.00360   1.07156   0.85756
C    -1.58252   0.23158  -0.96909
H    -0.86406   5.78332   0.34232
H    -2.46477   4.97640   0.50089
H    -1.44363   5.24682   1.96330
H     0.71344   0.10243   3.89997
H     0.34825  -1.48848   3.14328
H     2.05508  -1.00439   3.43751
H     2.53225   1.27449  -4.43712
H     3.71369   0.10993  -3.73865
H     2.10308  -0.46711  -4.28075
H    -0.32673  -0.56086  -2.47756
H    -1.26810  -2.79902  -1.57581
H     0.36179  -2.52054  -0.98671
H    -0.01612  -4.39336  -0.10174
H    -0.08043  -5.14048   1.47042
H    -2.34926  -1.15408   1.97518
H    -2.33005   1.69283   1.47153
H    -3.79879   0.67320   1.50156
H    -3.46241   1.70671   0.08764
H    -2.03251   0.97434  -1.63015
