55
Generated by autodE on: 2022-06-08. E = -4129.000688 Ha
C     5.30828   2.94945   1.68188
N     4.73664   1.70764   2.15415
C     4.61159   0.63754   1.36318
O     5.00411   0.63552   0.19052
C     3.88867  -0.58348   2.03809
C     4.67847  -1.88190   1.90319
C     6.05171  -1.89863   1.63714
C     6.75513  -3.10870   1.61852
C     6.09483  -4.31229   1.87337
C     4.72347  -4.30075   2.15558
C     4.02483  -3.09436   2.17462
N     3.73531  -0.29346   3.47324
C     2.32799  -0.11802   3.82810
C     1.89194  -1.26898   4.76332
C     2.21263   1.16782   4.56701
N     2.23280   2.13810   5.20326
C     1.60504  -0.13377   2.46448
C     2.43586  -0.60633   1.49273
C     2.10156  -1.02367   0.04792
C     1.81436   0.25136  -0.78989
C     3.26904  -1.71644  -0.70025
C     0.93202  -2.09750  -0.02502
C     0.08086  -2.46185   1.19595
C    -1.11227  -1.53703   1.42770
C    -0.77222  -0.05561   1.30314
C     0.21795   0.45174   2.34184
Cl   -0.68614   0.44276   3.93055
Br    0.50651   2.44246   1.93641
H     5.23260   3.70130   2.47689
H     4.76933   3.31492   0.79383
H     6.36884   2.82885   1.40644
H     4.46498   1.57959   3.12541
H     6.58352  -0.97006   1.42754
H     7.82632  -3.10566   1.40351
H     6.64464  -5.25618   1.85505
H     4.19598  -5.23591   2.35755
H     2.95336  -3.09275   2.38494
H     4.16148  -1.02036   4.03997
H     2.58001  -1.30075   5.62227
H     1.96910  -2.21366   4.20914
H     0.87120  -1.15193   5.13720
H     1.11872   0.95693  -0.32547
H     1.41148  -0.03810  -1.77257
H     2.75240   0.79961  -0.95232
H     2.93897  -1.87499  -1.73898
H     4.17445  -1.10480  -0.71655
H     3.50713  -2.69956  -0.28052
H     1.40967  -3.03122  -0.34941
H     0.26425  -1.80711  -0.85303
H    -0.30571  -3.48174   1.03937
H     0.70815  -2.52287   2.09752
H    -1.88108  -1.74299   0.66469
H    -1.57610  -1.73964   2.40539
H    -1.68104   0.55240   1.40527
H    -0.38031   0.14600   0.30259
