26
Generated by autodE on: 2022-06-08. E = -3424.030943 Ha
C     2.79400  -2.68093  -0.88203
C     2.44303  -1.21346  -1.17332
C     3.73110  -0.39858  -1.39574
C     1.64631  -0.61321  -0.10242
C     0.79147   0.01758   0.48663
C    -0.40786   0.80838   0.55202
Cl   -0.30078   2.13262   1.79639
Br   -1.94343  -0.38475   1.09188
C    -0.69529   1.41918  -0.82935
C    -0.60505   0.44841  -2.02334
C     0.78414   0.21316  -2.68281
C     1.50429  -1.12733  -2.42247
H     3.30232  -3.12078  -1.75416
H     1.88871  -3.27122  -0.67459
H     3.46745  -2.75913  -0.01485
H     3.50780   0.65013  -1.64069
H     4.36315  -0.41348  -0.49496
H     4.30316  -0.83698  -2.22816
H     0.03824   2.23152  -0.95952
H    -1.68934   1.88792  -0.78597
H    -1.06526  -0.51578  -1.75082
H    -1.26350   0.87745  -2.79387
H     1.45501   1.05617  -2.44673
H     0.62811   0.26698  -3.77136
H     2.13035  -1.37806  -3.29488
H     0.74981  -1.92690  -2.33827
