55
Generated by autodE on: 2022-06-08. E = -4128.920015 Ha. Imaginary frequency = -257.6 cm-1
C     5.92300   2.79626   2.24958
N     5.39417   1.52256   2.69529
C     4.90623   0.62165   1.81556
O     5.11505   0.73379   0.59981
C     4.19026  -0.55123   2.41721
C     4.65560  -1.91765   2.12686
C     5.87982  -2.16914   1.47687
C     6.28610  -3.47537   1.20899
C     5.48696  -4.55997   1.58931
C     4.27362  -4.32435   2.24324
C     3.85732  -3.01868   2.50351
N     3.55735  -0.39309   3.60774
C     2.59035   0.51141   3.92706
C     2.11050   0.50249   5.35398
C     2.54240   1.76702   3.24630
N     2.45940   2.81406   2.74079
C     1.21422  -0.34515   2.21044
C     1.97769  -0.50939   1.23291
C     2.05257  -0.77011  -0.24142
C     2.12167   0.59474  -0.95552
C     3.24146  -1.63539  -0.68179
C     0.73216  -1.49379  -0.64654
C     0.34042  -2.66440   0.27460
C    -0.93738  -2.44014   1.09994
C    -1.15727  -1.06729   1.74755
C    -0.11169  -0.57447   2.75470
Cl   -0.01490  -1.78135   4.13875
Br   -0.87957   1.15031   3.50406
H     5.14846   3.38939   1.73557
H     6.76334   2.65218   1.55456
H     6.27731   3.35752   3.12272
H     5.20487   1.40203   3.68411
H     6.51209  -1.33611   1.16800
H     7.23797  -3.64939   0.70169
H     5.80722  -5.58184   1.37386
H     3.63552  -5.16148   2.53572
H     2.88361  -2.85333   2.96949
H     3.50447  -1.23293   4.18713
H     2.78561   1.10225   5.98861
H     2.08836  -0.52586   5.73937
H     1.10322   0.92741   5.42873
H     1.27572   1.23453  -0.66112
H     2.07849   0.44339  -2.04617
H     3.05610   1.11858  -0.71287
H     3.19120  -1.77332  -1.77316
H     4.19049  -1.15019  -0.43580
H     3.22153  -2.62773  -0.21063
H     0.86359  -1.84188  -1.68315
H    -0.07678  -0.74834  -0.68081
H     0.18865  -3.57848  -0.32068
H     1.17750  -2.89456   0.95193
H    -1.81193  -2.58428   0.44287
H    -1.00801  -3.21910   1.87542
H    -2.12725  -1.08459   2.26486
H    -1.22558  -0.28626   0.97642
