23
Generated by autodE on: 2022-07-27. E = -517.874506 Ha
C     2.20725  -1.28449   2.05853
N     1.28518  -0.54709   1.49590
C     0.66715  -0.57155   0.25353
C     1.03689  -1.57591  -0.68901
C     0.28875  -1.69366  -2.00458
O     1.95344  -2.40592  -0.46123
C    -0.36917   0.46297   0.05868
C    -0.46018   1.20226  -1.13945
C    -1.43377   2.18824  -1.30626
C    -2.33172   2.48201  -0.27435
C    -2.24643   1.77141   0.92660
C    -1.28613   0.77035   1.08760
H     2.63759  -2.11563   1.51065
H     2.50331  -1.01517   3.07249
H     0.94531   0.21666   2.08670
H     0.30182  -2.75198  -2.30355
H     0.80778  -1.12199  -2.79182
H    -0.74829  -1.33663  -1.95629
H     0.25723   1.01909  -1.94019
H    -1.47856   2.74551  -2.24538
H    -3.08815   3.25943  -0.40427
H    -2.94329   1.98451   1.74108
H    -1.26297   0.20411   2.02244
