39
Generated by autodE on: 2022-06-13. E = -3736.173610 Ha. Imaginary frequency = -285.8 cm-1
C    -2.93352  -2.83947  -1.79570
C    -2.30441  -2.82281  -0.41701
O    -1.69507  -3.84395  -0.04106
C    -2.44464  -1.64798   0.42143
C    -3.34580  -0.51239   0.11944
C    -3.33196   0.13943  -1.13071
C    -4.16765   1.22824  -1.38393
C    -5.03268   1.70618  -0.39436
C    -5.05388   1.07700   0.85352
C    -4.22727  -0.01992   1.10492
N    -1.94374  -1.66087   1.70167
C    -0.91720  -2.36800   2.16801
C     0.68135  -1.52341   0.74810
C     0.99047  -0.20381   1.49274
O    -0.18216   0.55884   1.18768
C    -0.08162   0.41647  -0.24017
C     1.35434   0.96358  -0.46142
C     1.78612   1.57643  -1.73802
F     1.06572   2.68105  -2.02812
F     1.59242   0.71832  -2.76675
F     3.07876   1.92997  -1.75076
C     2.02397   0.56395   0.62734
Br    3.83432   0.65617   1.07821
C     0.00919  -1.11124  -0.37802
H    -3.00348  -3.88685  -2.11924
H    -3.92798  -2.37399  -1.82214
H    -2.29426  -2.30378  -2.51573
H    -2.64126  -0.18937  -1.90597
H    -4.13031   1.71609  -2.36103
H    -5.68224   2.56146  -0.59400
H    -5.72808   1.43247   1.63661
H    -4.28253  -0.51265   2.07860
H    -2.11546  -0.79278   2.20687
H    -0.74651  -3.35890   1.76965
H    -0.56570  -2.09822   3.16461
H     1.29142  -2.41910   0.85078
H     1.19624  -0.24637   2.56683
H    -0.88049   0.94743  -0.76566
H    -0.10099  -1.63648  -1.32355
