26
Generated by autodE on: 2022-10-21. E = -1145.288597 Ha
C     3.99118  -0.52325   0.27016
N     2.68367  -0.17145  -0.24897
C     1.70609   0.27325   0.54444
O     1.80398   0.41067   1.76488
C     0.37794   0.62032  -0.16325
C    -0.01253   2.08595   0.17798
C     1.06304   3.11342   0.00122
O    -1.13861   2.34622   0.54379
N     0.46165   0.54102  -1.62433
C    -0.42087  -0.33592  -1.98576
C    -1.16814  -0.93152  -0.89295
Cl   -2.39919  -2.12672  -1.15223
C    -0.70126  -0.35882   0.25790
O    -0.99066  -0.46453   1.53908
C    -2.01025  -1.37356   1.98293
H     3.90374  -1.26848   1.07497
H     4.59265  -0.94600  -0.54318
H     4.51181   0.35884   0.67705
H     2.50296  -0.18447  -1.24879
H     1.75908   3.03693   0.85287
H     1.63934   2.92335  -0.91473
H     0.62249   4.11855  -0.01347
H    -0.57782  -0.60391  -3.03572
H    -2.04188  -1.27229   3.07410
H    -2.98330  -1.09788   1.55369
H    -1.75120  -2.40602   1.71089
