24
Generated by autodE on: 2022-07-27. E = -734.801315 Ha
C    -1.42720  -4.30778  -1.72247
N    -0.86325  -3.27517  -0.87498
C    -0.92236  -1.96959  -1.16731
O    -1.45299  -1.49306  -2.18293
C    -0.29690  -1.02162  -0.19316
C     0.19116  -1.45632   1.05594
N     0.49592  -1.95270   2.06731
N    -0.42044   0.24547  -0.59576
C    -0.02434   1.44391  -0.15338
C    -0.51203   2.57525  -0.85047
N    -0.90178   3.52921  -1.39802
C     1.01360   1.58896   0.90081
O     1.78721   0.65553   1.14206
N     1.08207   2.78181   1.51774
C     2.11798   3.06074   2.49412
H    -2.19871  -4.87687  -1.18135
H    -1.88182  -3.83881  -2.60220
H    -0.64522  -5.00811  -2.05372
H    -0.39540  -3.56444  -0.02047
H    -0.97067   0.23432  -1.47992
H     0.39335   3.49951   1.31375
H     2.03844   2.38769   3.36257
H     3.11937   2.93180   2.05492
H     2.00984   4.09661   2.83613
