50
Generated by autodE on: 2022-06-24. E = -1424.244716 Ha. Imaginary frequency = -348.2 cm-1
C    -3.46652  -4.02900  -0.47391
N    -2.65657  -2.96415   0.09010
C    -2.76282  -1.70527  -0.35180
O    -3.60816  -1.31707  -1.16411
C    -1.73900  -0.71766   0.15337
C    -1.13840  -0.98759   1.42053
N    -0.68101  -1.31887   2.43776
N    -2.00993   0.55389  -0.26891
C    -1.07101   1.54427  -0.36955
C    -1.41784   2.64175  -1.22060
N    -1.65955   3.53989  -1.91822
C    -0.28911   2.01633   0.84976
O     0.77659   2.61298   0.70626
N    -0.89072   1.80162   2.02733
C    -0.25231   2.04464   3.30599
C     0.36535   0.33717  -1.63197
C    -0.07370   0.79259  -3.00078
C     1.68713   0.90046  -1.20650
O     2.24549   1.75636  -1.88212
C     2.34999   0.32951  -0.00328
O     3.41976   0.89885   0.56543
C     3.85609   2.24195   0.31745
C     1.93366  -0.88178   0.47986
O     2.46497  -1.50179   1.55868
C     2.68644  -0.73358   2.74713
C     0.93274  -1.68559  -0.24317
O     0.80008  -2.88096   0.01671
C     0.06895  -1.01131  -1.25489
C    -0.56755  -1.92766  -2.26793
H    -3.36946  -4.92059   0.15710
H    -4.52107  -3.72376  -0.50600
H    -3.14451  -4.27753  -1.49892
H    -1.83257  -3.22313   0.62721
H    -2.73266   0.52261  -1.00194
H    -1.82011   1.39282   2.03750
H    -0.79639   2.81257   3.87671
H    -0.23285   1.11441   3.89318
H     0.77359   2.38812   3.13352
H    -1.15109   0.64056  -3.15002
H     0.45085   0.20339  -3.77131
H     0.16753   1.84728  -3.16817
H     4.53132   2.47793   1.15070
H     3.01355   2.94119   0.31326
H     4.40511   2.30390  -0.63120
H     2.58931  -1.43304   3.58887
H     3.69084  -0.28771   2.75268
H     1.93195   0.06062   2.84573
H    -1.50135  -1.51845  -2.67071
H    -0.76516  -2.91347  -1.83476
H     0.12389  -2.06292  -3.11734
