39
Generated by autodE on: 2022-05-29. E = -918.297810 Ha
C    -1.98006   3.65555   0.86051
N    -1.84526   2.21779   0.72997
C    -0.83711   1.66378   0.02974
O     0.01821   2.35898  -0.54478
C    -0.77132   0.18347  -0.05074
C    -1.74938  -0.73076  -0.18594
C    -3.22555  -0.52976  -0.25463
C    -1.14138  -2.13531  -0.22074
C    -1.40318  -2.83144   1.12469
C    -1.66397  -2.98770  -1.37596
N     0.31449  -1.89834  -0.40019
C     0.59004  -0.51405  -0.00867
C     1.19992  -0.41652   1.41028
C     2.22259  -1.44596   1.79120
O     0.83217   0.45610   2.17638
C     1.56299   0.11035  -1.02114
O     1.47538  -0.07974  -2.21515
O     2.51315   0.83303  -0.44202
C     3.40708   1.55116  -1.30686
H    -2.91144   3.87789   1.39555
H    -1.13617   4.09163   1.42051
H    -2.01367   4.13753  -0.12828
H    -2.46540   1.61436   1.25760
H    -3.50492   0.52768  -0.33418
H    -3.71059  -0.94833   0.64355
H    -3.64697  -1.06690  -1.11883
H    -0.99460  -2.24079   1.95896
H    -2.48197  -2.96406   1.29644
H    -0.92579  -3.82316   1.13260
H    -2.72705  -3.23187  -1.23932
H    -1.10299  -3.93389  -1.42581
H    -1.54562  -2.46019  -2.33581
H     0.50762  -1.95384  -1.40087
H     2.90298  -1.66526   0.95614
H     2.78271  -1.10652   2.67261
H     1.69851  -2.38388   2.03481
H     4.12407   2.05408  -0.64850
H     2.84113   2.29031  -1.89184
H     3.92673   0.85856  -1.98333
