14
Generated by autodE on: 2022-05-29. E = -324.833824 Ha
C     2.70844   1.66794   0.15980
C     1.56924   0.77230   0.05413
C     0.61578   0.02383  -0.03480
C    -0.48953  -0.91559  -0.14923
O    -0.29130  -2.11482  -0.39095
N    -1.72171  -0.39520   0.02398
C    -2.02452   0.99464   0.32058
H     2.52782   2.44601   0.91856
H     3.62060   1.11587   0.43682
H     2.89324   2.17015  -0.80391
H    -2.48834  -1.05886  -0.05241
H    -1.65327   1.66825  -0.46673
H    -1.58970   1.31132   1.28129
H    -3.11418   1.10442   0.38248
