39
Generated by autodE on: 2022-05-29. E = -918.203910 Ha. Imaginary frequency = -384.0 cm-1
C     0.03805   3.70686   0.93318
N    -0.40475   2.32958   0.85385
C    -0.97720   1.86671  -0.27276
O    -1.29468   2.60569  -1.22038
C    -1.25726   0.43034  -0.34332
C    -2.01394  -0.49291  -0.71988
C    -3.28466  -0.92610  -1.32861
C    -0.95420  -2.38082  -0.21914
C    -1.55082  -2.48992   1.15288
C    -1.37362  -3.42900  -1.20670
N     0.28153  -1.86964  -0.41612
C     0.77200  -0.74250   0.20937
C     0.97937  -0.70410   1.66438
C     1.26689  -2.00160   2.38593
O     1.02952   0.35374   2.30271
C     1.55254   0.09545  -0.70975
O     1.64720  -0.14328  -1.90989
O     2.14586   1.14495  -0.13229
C     2.78179   2.08327  -1.00812
H     0.76282   3.95289   0.13861
H    -0.80937   4.40286   0.83911
H     0.51638   3.86896   1.90758
H     0.06623   1.64463   1.45808
H    -3.94053  -0.05828  -1.50406
H    -3.82050  -1.64715  -0.69198
H    -3.10386  -1.41871  -2.29700
H    -1.35357  -1.61289   1.77954
H    -1.14867  -3.38236   1.66233
H    -2.63738  -2.62309   1.06683
H    -2.46631  -3.52282  -1.23308
H    -0.97295  -4.40876  -0.89318
H    -1.00024  -3.20756  -2.21762
H     0.59554  -1.92310  -1.38859
H     2.32579  -1.95690   2.69221
H     1.12473  -2.89625   1.77203
H     0.66279  -2.06572   3.30261
H     3.60811   1.60826  -1.55644
H     3.16642   2.88235  -0.36421
H     2.05267   2.48978  -1.72390
