36
Generated by autodE on: 2022-06-17. E = -692.436021 Ha
C     5.15861   0.72411  -0.35047
C     4.10340   0.10235   0.21347
C     4.25031  -0.76253   1.43709
C     2.76933   0.26489  -0.37493
C     1.63705  -0.29872   0.08369
C     0.30037  -0.06170  -0.53599
N    -0.43733  -1.31037  -0.82641
C     0.06103  -2.23183  -1.82347
N    -1.74997  -1.12437  -0.72990
C    -2.00788   0.00096  -0.11811
C    -3.38226   0.37684   0.19559
C    -4.49625  -0.52902  -0.27519
O    -3.62787   1.40621   0.83311
C    -0.74142   0.72920   0.32547
C    -0.54949   0.52217   1.83842
C    -0.69192   2.21916  -0.01605
H     6.16690   0.62481   0.06127
H     5.03757   1.34999  -1.23988
H     3.62943  -0.38430   2.26621
H     5.29532  -0.80049   1.77539
H     3.91246  -1.79290   1.23647
H     2.71292   0.90580  -1.26259
H     1.65580  -0.95101   0.96061
H     0.43673   0.47537  -1.49463
H     1.07986  -2.54393  -1.55603
H     0.09054  -1.76772  -2.82754
H    -0.58787  -3.11662  -1.85645
H    -4.41527  -0.73038  -1.35336
H    -5.46292  -0.05843  -0.05277
H    -4.43598  -1.50075   0.24005
H    -1.38333   0.98794   2.38328
H    -0.52150  -0.54584   2.10216
H     0.38809   0.98674   2.18086
H     0.32329   2.60704   0.16928
H    -1.39681   2.79195   0.60136
H    -0.93609   2.39331  -1.07515
