23
Generated by autodE on: 2022-06-17. E = -351.521381 Ha
C    -3.63311  -0.93267  -0.48190
C    -2.57623  -0.15161  -0.16756
C    -2.76432   1.26782   0.30377
C    -1.21827  -0.67979  -0.28269
C    -0.07867   0.00079  -0.00142
C     1.24601  -0.57079  -0.13282
C     2.42942   0.04183   0.12418
C     2.56613   1.45994   0.60117
C     3.72943  -0.68883  -0.06071
H    -4.65937  -0.56287  -0.40500
H    -3.49355  -1.96283  -0.82396
H    -3.82951   1.53550   0.34550
H    -2.25397   1.97990  -0.36591
H    -2.33065   1.41427   1.30700
H    -1.13573  -1.71734  -0.62825
H    -0.15354   1.03565   0.34317
H     1.28039  -1.61111  -0.47831
H     1.60717   1.97687   0.73445
H     3.17551   2.04461  -0.11061
H     3.10901   1.48874   1.56247
H     4.37406  -0.16289  -0.78783
H     3.58088  -1.72104  -0.41045
H     4.29954  -0.71903   0.88528
