13
Generated by autodE on: 2022-06-17. E = -340.827145 Ha
C    -2.99497   0.30089   0.37053
N    -2.04974  -0.76578   0.02531
N    -0.90902  -0.38956  -0.22252
C     0.19833  -0.09208  -0.56755
C     1.55067   0.10541  -0.06584
C     1.90124   1.52363   0.29014
O     2.33711  -0.83080  -0.00534
H    -2.91726   1.14872  -0.32947
H    -4.00877  -0.11338   0.33173
H    -2.80574   0.67089   1.39160
H     1.16441   1.93380   0.99893
H     2.90971   1.55369   0.72432
H     1.86764   2.14885  -0.61704
