28
Generated by autodE on: 2022-10-26. E = -782.719025 Ha
C     1.85610   3.31182  -1.05085
C     1.33429   1.99802  -0.52757
O     2.12662   1.14323  -0.08537
C    -0.07516   1.72029  -0.60214
O    -0.45273   0.41738  -0.33160
C     0.06502  -0.33604   0.58643
C     0.65645   0.25429   1.74976
N     1.03368   0.70047   2.75470
C    -0.13464  -1.75795   0.49951
C    -0.73677  -2.31384  -0.65490
C    -0.94990  -3.68359  -0.72716
C    -0.55757  -4.51500   0.33242
C     0.05150  -3.97353   1.47135
C     0.26597  -2.60326   1.56073
C    -1.11751   2.49343  -1.24008
C    -2.46571   1.82603  -1.40451
O    -0.93646   3.65936  -1.61539
H     1.53044   3.49336  -2.08459
H     2.95231   3.29589  -0.99058
H     1.46236   4.14067  -0.44305
H    -1.02361  -1.66273  -1.48098
H    -1.41623  -4.11416  -1.61525
H    -0.72239  -5.59259   0.26547
H     0.35927  -4.62494   2.29119
H     0.73909  -2.18093   2.44884
H    -2.37283   0.88701  -1.97317
H    -2.89483   1.56780  -0.42331
H    -3.13986   2.51393  -1.93073
