28
Generated by autodE on: 2022-10-24. E = -782.719004 Ha
C    -2.13136   2.52952   0.64293
C    -2.73776   1.18087   0.32121
O    -3.96580   1.02392   0.30925
C    -1.82168   0.10756   0.00358
O    -0.49466   0.46596   0.15292
C     0.50819  -0.09353  -0.44693
C     0.32129  -0.74085  -1.71078
N     0.22570  -1.16829  -2.78761
C     1.82698   0.10830   0.09179
C     1.98320   0.74694   1.34549
C     3.25680   0.95946   1.85518
C     4.38355   0.53094   1.13785
C     4.23602  -0.11295  -0.09709
C     2.96756  -0.32736  -0.62290
C    -2.08937  -1.30192  -0.10359
C    -3.51269  -1.79044  -0.01861
O    -1.15394  -2.11867  -0.21143
H    -2.93824   3.23016   0.89318
H    -1.42866   2.45271   1.48800
H    -1.56094   2.91567  -0.21674
H     1.10163   1.06073   1.90499
H     3.37952   1.45302   2.82105
H     5.38228   0.69439   1.54857
H     5.11567  -0.44779  -0.64965
H     2.85203  -0.82650  -1.58646
H    -4.01470  -1.41836   0.88531
H    -4.08920  -1.41718  -0.87875
H    -3.50169  -2.88835  -0.02806
