68
Generated by autodE on: 2022-10-24. E = -1779.979597 Ha. Imaginary frequency = -231.5 cm-1
C    11.87928  -6.29270  -4.99466
O    11.45985  -6.29603  -6.37055
C    11.88209  -5.30547  -7.14070
O    12.54682  -4.37261  -6.74542
C    11.44416  -5.44162  -8.61175
C    10.90869  -6.82903  -8.99156
O     9.91512  -7.01159  -9.66106
O    11.72525  -7.80239  -8.60526
C    11.34018  -9.14244  -8.95382
C    12.71797  -5.21545  -9.52281
C    13.09511  -3.74689  -9.79388
C    12.76689  -3.23096 -11.20880
C    11.36684  -3.48039 -11.78213
C    10.19050  -2.82223 -11.02316
O    10.40024  -1.46136 -10.77389
C    10.49154  -0.60265 -11.90455
O     8.98058  -2.92635 -11.75440
C     8.56584  -4.22317 -12.15621
C    10.08300  -3.51005  -9.70755
C    10.43880  -4.40736  -8.94248
C     8.48112  -4.39909  -7.28976
C     9.16115  -4.07789  -6.06689
N     9.56204  -4.04145  -4.97427
C     7.96998  -5.76407  -7.43095
C     7.16325  -6.10218  -8.53725
C     6.73822  -7.41288  -8.72077
C     7.12094  -8.41278  -7.81758
C     7.91582  -8.08563  -6.71450
C     8.33087  -6.77120  -6.51242
O     7.90366  -3.48849  -8.03123
C     8.26739  -2.29532  -8.53381
C     9.22729  -1.43767  -7.81769
C     9.35035   0.02385  -8.14717
O     9.92634  -1.93248  -6.93296
C     7.32273  -1.82185  -9.56503
C     6.18687  -2.73320  -9.95494
O     7.44950  -0.71293 -10.07830
H    11.43753  -7.19063  -4.54868
H    11.51133  -5.39195  -4.48776
H    12.97606  -6.33662  -4.93970
H    11.27891  -9.25207 -10.04576
H    12.12140  -9.79425  -8.54708
H    10.36652  -9.38282  -8.50266
H    12.52515  -5.73023 -10.47602
H    13.54671  -5.75546  -9.04461
H    12.64207  -3.09595  -9.03550
H    14.18258  -3.64218  -9.65788
H    13.47202  -3.69937 -11.91598
H    12.98211  -2.15072 -11.23637
H    11.33179  -3.10613 -12.81747
H    11.16930  -4.55984 -11.83679
H     9.58928  -0.66282 -12.53064
H    11.37788  -0.82327 -12.52128
H    10.58390   0.41663 -11.50597
H     7.53115  -4.12574 -12.51090
H     9.18277  -4.61832 -12.97965
H     8.59117  -4.93846 -11.31703
H     6.89512  -5.33706  -9.26138
H     6.11836  -7.66238  -9.58440
H     6.79939  -9.44479  -7.97401
H     8.21231  -8.85853  -6.00257
H     8.94231  -6.52839  -5.64514
H     9.68488   0.16209  -9.18180
H    10.07737   0.46301  -7.45109
H     8.37740   0.52708  -8.04948
H     5.58004  -2.22694 -10.71565
H     5.56489  -2.98043  -9.08160
H     6.56907  -3.67724 -10.36463
