40
Generated by autodE on: 2022-06-21. E = -1118.912746 Ha
C     3.57117  -2.62189  -0.83852
N     2.60580  -1.54131  -0.88108
C     1.79418  -1.27695   0.14832
O     1.77116  -1.92843   1.19451
C     0.85895  -0.07074  -0.03471
C     1.43616   1.16281   0.71249
O     0.94531   2.26650   0.61945
O     2.57323   0.89772   1.33776
C     3.17103   1.97557   2.07623
N     0.76745   0.35519  -1.44396
C    -0.42907   0.74813  -1.65618
C    -0.84805   1.27181  -2.92763
N    -1.23036   1.70612  -3.93426
C    -1.39599   0.65367  -0.48078
N    -2.76378   0.35456  -0.82106
C    -3.70161   1.46561  -0.74246
C    -3.22960  -0.93810  -0.67385
C    -2.45978  -1.98638  -0.31856
C    -0.99412  -1.83064  -0.04508
C    -0.61635  -0.38615   0.39298
C    -0.85786  -0.16445   1.88676
N    -2.07788  -0.49837   2.33479
O     0.01073   0.31821   2.61968
H     3.08076  -3.57174  -0.57717
H     4.03770  -2.72110  -1.82583
H     4.35735  -2.42786  -0.09098
H     2.54586  -0.94013  -1.69701
H     4.08905   1.56713   2.51294
H     3.40323   2.81623   1.40764
H     2.48496   2.30879   2.86805
H    -1.37021   1.63292   0.01970
H    -3.32625   2.31946  -1.32509
H    -4.66616   1.15944  -1.16993
H    -3.86747   1.79724   0.29949
H    -4.29846  -1.05627  -0.86807
H    -2.90716  -2.97920  -0.25610
H    -0.65953  -2.53465   0.72783
H    -0.41284  -2.08166  -0.94903
H    -2.27616  -0.40341   3.32673
H    -2.74678  -0.97530   1.73332
