20
Generated by autodE on: 2022-06-21. E = -661.124094 Ha
C    -3.87497  -1.00105   0.04560
N    -2.42990  -1.01950   0.12139
C    -1.66611   0.06681  -0.09458
O    -2.10209   1.18985  -0.38053
C    -0.19323  -0.14658   0.03009
N     0.54591   0.91420  -0.18176
C     1.15776   1.89719  -0.38244
C     1.87795   3.02146  -0.61904
N     2.50077   3.99231  -0.82316
C     0.47941  -1.40699   0.35387
O    -0.10249  -2.46266   0.56791
O     1.80995  -1.28059   0.39049
C     2.56445  -2.46248   0.69731
H    -4.32296  -1.31175   1.00281
H    -4.21035   0.01639  -0.18657
H    -4.23875  -1.68146  -0.74097
H    -1.94304  -1.88675   0.34612
H     2.29332  -2.84505   1.69180
H     2.38365  -3.24128  -0.05750
H     3.61687  -2.15724   0.68219
