35
Generated by autodE on: 2022-06-17. E = -691.532036 Ha
C     3.66136  -1.47800   1.17810
N     2.45496  -1.18897   0.43704
C     1.97355   0.04249   0.22175
O     2.51671   1.09132   0.59925
C     0.67379   0.09367  -0.57635
N     0.03192  -1.21077  -0.77165
C    -1.22533  -1.22091   0.01785
C    -0.90966  -1.65865   1.45556
C    -2.20673  -2.21871  -0.59139
C    -1.72021   0.27786  -0.03717
C    -2.35353   0.60216  -1.40074
C    -2.70435   0.65547   1.07013
C    -0.35039   1.02017   0.11032
C    -0.36906   2.42534  -0.40985
O     0.27544   2.83342  -1.35637
H     3.43780  -2.00140   2.12203
H     4.16788  -0.53336   1.41317
H     4.34467  -2.10913   0.58875
H     1.84328  -1.93580   0.10827
H     0.95202   0.52711  -1.54967
H    -0.21232  -1.30476  -1.75516
H    -0.24324  -0.95640   1.97736
H    -0.41263  -2.63997   1.43494
H    -1.82890  -1.75625   2.05065
H    -1.82894  -3.24514  -0.46535
H    -2.35648  -2.04478  -1.66682
H    -3.18494  -2.15490  -0.09174
H    -1.69432   0.34087  -2.24259
H    -3.30405   0.06542  -1.53073
H    -2.57759   1.67749  -1.47637
H    -3.60269   0.01923   1.02362
H    -2.26230   0.55473   2.07114
H    -3.03362   1.70009   0.95453
H    -0.13238   1.11592   1.18665
H    -1.04770   3.11685   0.14374
