14
Generated by autodE on: 2022-06-17. E = -270.683213 Ha
C     0.85266   1.24390  -0.49839
C     0.80681  -0.23434  -0.23747
C     2.05490  -0.99831  -0.54826
C    -0.28999  -0.87583   0.25116
C    -1.56094  -0.25276   0.58890
O    -1.85038   0.93596   0.47227
H     0.59131   1.81447   0.40633
H     1.84792   1.55543  -0.84494
H     0.10791   1.52895  -1.25915
H     2.32896  -0.85289  -1.60811
H     2.89802  -0.59491   0.03988
H     1.95625  -2.07365  -0.34579
H    -0.24028  -1.95611   0.41610
H    -2.32320  -0.96374   0.99066
