21
Generated by autodE on: 2022-07-27. E = -420.784157 Ha
C     2.65641  -0.54711   2.13140
N     1.43675  -0.42914   1.35648
C     1.39280   0.47582   0.29861
O     2.36588   1.24873   0.10483
C     0.22526   0.51157  -0.51414
N    -0.93098  -0.16105  -0.18509
C    -2.04195  -0.29943  -0.87341
C    -3.20273  -1.01150  -0.26859
C    -2.11802   0.29028  -2.23606
H     2.48999  -1.25482   2.95529
H     3.51885  -0.90310   1.53745
H     2.93439   0.42458   2.56420
H     0.94526  -1.30696   1.21769
H     0.21149   1.15394  -1.39006
H    -0.94065  -0.58846   0.74442
H    -2.96559  -1.41069   0.72887
H    -4.07078  -0.33458  -0.17402
H    -3.52572  -1.84534  -0.91589
H    -1.26425  -0.04262  -2.85468
H    -2.06150   1.39450  -2.19699
H    -3.05470   0.00932  -2.73459
