21
Generated by autodE on: 2022-06-17. E = -420.790670 Ha
C     3.75811  -0.38254  -0.10745
N     2.40034  -0.87489  -0.18896
C     1.33241  -0.06150   0.11354
O     1.51711   1.03366   0.71643
C     0.03535  -0.52008  -0.25486
N    -1.00265   0.30098   0.10649
C    -2.29613   0.18884  -0.06829
C    -2.82103  -1.01264  -0.77318
C    -3.20424   1.25801   0.43681
H     3.93021   0.10123   0.86421
H     4.00281   0.35645  -0.89450
H     4.45739  -1.22474  -0.20122
H     2.22361  -1.63129  -0.84179
H    -0.16808  -1.45237  -0.77415
H    -0.65651   1.13685   0.59491
H    -2.39635  -1.09133  -1.79146
H    -2.53368  -1.93997  -0.24328
H    -3.91540  -0.97850  -0.85164
H    -2.64380   2.06464   0.93274
H    -3.93418   0.84504   1.15549
H    -3.79232   1.69602  -0.38920
