29
Generated by autodE on: 2022-06-16. E = -650.649565 Ha. Imaginary frequency = -346.0 cm-1
C    -4.97504   0.97096   0.78471
N    -3.80374   0.12748   0.63460
C    -2.61612   0.63145   0.26435
O    -2.41861   1.82122  -0.02030
C    -1.51595  -0.33449   0.08951
N    -0.52476  -0.56906   0.76174
C     0.66366  -1.13633   0.75274
C     1.84409  -0.35672   0.39181
C     1.73689   0.94418  -0.14438
C     2.87953   1.63855  -0.53922
C     4.14671   1.05731  -0.40372
C     4.26167  -0.22968   0.13488
C     3.12327  -0.93066   0.53263
C     0.12207  -2.19796  -1.45928
C    -1.08019  -1.61729  -1.76153
H    -5.83925   0.33689   1.01541
H    -4.84555   1.70250   1.59854
H    -5.17842   1.52654  -0.14356
H    -3.86725  -0.86322   0.84947
H     0.79107  -2.04383   1.34951
H     0.75281   1.40825  -0.24257
H     2.78231   2.64582  -0.95178
H     5.03942   1.60699  -0.71067
H     5.24671  -0.68911   0.24808
H     3.21410  -1.93678   0.94964
H     0.17279  -3.19246  -1.00821
H     1.06054  -1.77972  -1.82759
H    -2.02091  -2.15593  -1.61778
H    -1.13281  -0.74132  -2.41400
