23
Generated by autodE on: 2022-06-17. E = -351.521384 Ha
C     3.69093  -0.02984  -0.82095
C     2.58429  -0.07198  -0.04673
C     2.68036  -0.22591   1.44966
C     1.26099   0.03171  -0.65850
C     0.07795   0.00019   0.00505
C    -1.20893   0.10599  -0.65179
C    -2.43084   0.07859  -0.06210
C    -3.68365   0.20079  -0.88249
C    -2.65580  -0.07204   1.41566
H     3.61766   0.08228  -1.90715
H     4.69300  -0.10592  -0.38969
H     2.21019   0.62640   1.96784
H     2.15136  -1.13134   1.79073
H     3.72750  -0.29376   1.77661
H     1.24537   0.14387  -1.74933
H     0.08491  -0.11200   1.09268
H    -1.17648   0.22001  -1.74213
H    -4.33168  -0.68295  -0.74142
H    -3.46921   0.30738  -1.95601
H    -4.28117   1.07147  -0.55730
H    -3.22497   0.79038   1.80543
H    -3.27509  -0.96360   1.61874
H    -1.72847  -0.16061   1.99615
