36
Generated by autodE on: 2022-06-17. E = -692.339628 Ha. Imaginary frequency = -303.3 cm-1
C    -3.07870   2.54588   0.53220
C    -2.55977   1.56165  -0.49652
O    -2.73055   1.73011  -1.70258
C    -1.83903   0.44212   0.06104
N    -1.78914  -0.17527   1.11526
N    -1.53895  -1.19722   1.76954
C    -1.49348  -1.02237   3.22161
C    -0.34944  -1.77281  -1.20531
C    -0.93202  -3.15965  -1.11490
C     1.02849  -1.61597  -0.76333
C     1.67987  -0.43408  -0.59064
C     3.04225  -0.33416  -0.12669
C     3.74150   0.80980   0.09913
C     5.16185   0.75635   0.58263
C     3.19387   2.19307  -0.10215
C    -1.09047  -0.73578  -1.71158
H    -3.96878   2.11445   1.01964
H    -3.36032   3.47871   0.02536
H    -2.33256   2.74383   1.31487
H    -0.59661  -0.45394   3.52442
H    -2.38254  -0.49072   3.59972
H    -1.44659  -2.01466   3.68699
H    -0.49663  -3.79563  -1.90697
H    -0.69551  -3.64406  -0.15631
H    -2.02258  -3.15173  -1.25178
H     1.56331  -2.54072  -0.51733
H     1.14072   0.49548  -0.79462
H     3.55343  -1.28577   0.06152
H     5.51922  -0.27543   0.71328
H     5.26628   1.28875   1.54505
H     5.83402   1.27340  -0.12555
H     2.15002   2.21263  -0.44000
H     3.80604   2.74062  -0.84042
H     3.26265   2.76848   0.83779
H    -0.61900   0.19582  -2.02515
H    -2.09633  -0.92234  -2.09428
