24
Generated by autodE on: 2022-10-07. E = -800.441248 Ha
C     4.52833   1.53610  -0.06911
O     3.16800   1.06575  -0.04897
C     2.99803  -0.24889  -0.08310
O     3.86795  -1.09289  -0.12922
C     1.56845  -0.60104  -0.05927
O     1.12710  -1.82271  -0.09348
C    -0.33805  -1.78154  -0.06350
O    -0.97612  -2.81181  -0.08771
C    -0.60119  -0.39516  -0.00964
C    -1.83485   0.34840   0.05509
C    -1.83235   1.75799   0.12068
C    -3.03537   2.45785   0.18691
C    -4.25659   1.77337   0.18940
C    -4.26498   0.37556   0.12405
C    -3.06917  -0.33738   0.05735
O     0.60155   0.26537  -0.00983
H     5.07327   1.15422   0.80573
H     4.46563   2.62901  -0.03594
H     5.02844   1.20638  -0.99075
H    -0.88441   2.29848   0.12029
H    -3.01981   3.54903   0.23784
H    -5.19653   2.32711   0.24206
H    -5.21311  -0.16705   0.12552
H    -3.08075  -1.42654   0.00710
