34
Generated by autodE on: 2022-10-07. E = -1255.491114 Ha. Imaginary frequency = -270.7 cm-1
C     4.32173  -1.70231  -1.07085
O     2.97043  -1.22440  -1.17361
C     2.79280   0.07403  -0.97517
O     3.66747   0.91217  -0.90578
C     1.35660   0.43379  -0.87768
O     0.89310   1.49320  -1.55658
C    -0.51916   1.39437  -1.58871
O    -1.20416   2.29187  -2.04221
C    -0.77929   0.10427  -1.02849
C    -2.00748  -0.62731  -0.85515
C    -1.98797  -1.95868  -0.39076
C    -3.18263  -2.64870  -0.19914
C    -4.40977  -2.02588  -0.45664
C    -4.43464  -0.70011  -0.90384
C    -3.24637   0.00116  -1.09948
O     0.41490  -0.49800  -0.79780
C    -0.18227   1.50894   1.17941
C    -1.19305   0.63210   1.87005
O    -2.36393   1.09703   1.95722
O    -0.80987  -0.49340   2.29497
C     1.17860   1.29679   1.18251
C     1.90616   0.29370   2.08251
O     2.35188  -0.77131   1.58661
O     2.06747   0.69227   3.26313
H     4.96729  -1.20186  -1.80579
H     4.69794  -1.51882  -0.05390
H     4.27590  -2.77820  -1.27258
H    -1.03317  -2.44037  -0.17718
H    -3.15747  -3.68081   0.15787
H    -5.34395  -2.57089  -0.30337
H    -5.38927  -0.20566  -1.09757
H    -3.26519   1.03652  -1.43902
H    -0.58042   2.44029   0.76812
H     1.81279   2.12868   0.85519
