49
Generated by autodE on: 2022-06-21. E = -1092.204493 Ha
C    -2.89032  -2.57312   0.68544
N    -1.89774  -1.83404  -0.06920
C    -1.67154  -2.11648  -1.39421
C    -0.60312  -1.68815  -2.10283
C     0.46668  -0.83859  -1.48139
C     0.46637  -0.94546   0.06923
C     1.22413  -2.15043   0.62826
N     1.25272  -3.25045  -0.14098
O     1.72959  -2.10861   1.75586
C     0.92800   0.37157   0.69139
C     2.34377   0.80149   0.74451
C     3.36274   0.08331   0.09412
C     4.68716   0.52400   0.14351
C     5.01748   1.68370   0.84947
C     4.01212   2.40503   1.50463
C     2.68977   1.96946   1.45045
N    -0.02084   1.13529   1.09424
C    -1.33401   0.51276   0.88402
C    -2.17533   0.70807   2.15079
C    -2.03822   1.13023  -0.32293
C    -3.34761   0.73368  -0.64689
C    -3.99844   1.25745  -1.76573
C    -3.35935   2.19969  -2.57852
C    -2.06588   2.61592  -2.25522
C    -1.41297   2.08504  -1.13787
C    -0.97625  -1.00825   0.66138
H    -2.43786  -3.38479   1.28632
H    -3.61811  -3.02035  -0.00545
H    -3.43824  -1.90986   1.37164
H    -2.43707  -2.74404  -1.85821
H    -0.52799  -1.95053  -3.15937
H     1.45820  -1.11991  -1.86815
H     0.33667   0.22079  -1.75779
H     1.68053  -4.09612   0.22414
H     0.74412  -3.28638  -1.02142
H     3.13439  -0.82366  -0.46506
H     5.46421  -0.04499  -0.37182
H     6.05454   2.02477   0.89122
H     4.26243   3.31113   2.06142
H     1.90342   2.52811   1.95844
H    -1.65803   0.26982   3.01783
H    -3.15737   0.22538   2.05707
H    -2.33223   1.78033   2.34081
H    -3.86787   0.00570  -0.02460
H    -5.01301   0.92776  -2.00298
H    -3.86905   2.60954  -3.45382
H    -1.55681   3.35824  -2.87501
H    -0.40297   2.41709  -0.89774
H    -0.88199  -1.42761   1.67454
