29
Generated by autodE on: 2022-06-21. E = -634.411602 Ha
C    -1.09898  -2.59019   1.38876
C    -0.98552  -1.17526   0.88588
N     0.08173  -0.50230   1.12492
C     1.01505   0.25061   1.41052
C     2.20114   0.43805   0.55933
C     3.27821   1.19429   1.05340
C     4.41431   1.40399   0.26906
C     4.47783   0.87074  -1.02210
C     3.40667   0.12218  -1.52880
C     2.27696  -0.09733  -0.74347
C    -2.08438  -0.53423   0.14185
C    -1.96328   0.78449  -0.34762
C    -3.01132   1.38682  -1.04054
C    -4.20423   0.68922  -1.26936
C    -4.33481  -0.61876  -0.79376
C    -3.28927  -1.22683  -0.09537
H    -0.17876  -2.88643   1.90911
H    -1.27378  -3.29397   0.55879
H    -1.94542  -2.69335   2.08812
H     3.20986   1.61265   2.06003
H     5.24918   1.98864   0.66193
H     5.36355   1.03998  -1.63916
H     3.45835  -0.29064  -2.53908
H     1.43959  -0.68210  -1.13250
H    -1.03565   1.33708  -0.18572
H    -2.89591   2.40874  -1.41006
H    -5.02313   1.16203  -1.81630
H    -5.26020  -1.17393  -0.96584
H    -3.41568  -2.24659   0.26993
