49
Generated by autodE on: 2022-06-21. E = -1092.119891 Ha. Imaginary frequency = -383.4 cm-1
C    -3.03937  -1.79057  -1.00633
N    -1.59901  -1.64853  -0.90320
C    -0.83281  -1.60682  -2.06130
C     0.50771  -1.72923  -2.04898
C     1.24983  -2.00246  -0.76767
C     0.42188  -1.56807   0.44092
C     0.94308  -1.85006   1.80052
N     2.22269  -2.29375   1.87596
O     0.26290  -1.70808   2.83443
C     0.98674   0.54534   0.56086
C     2.38073   0.87271   0.37671
C     2.86487   1.15278  -0.91741
C     4.22452   1.39358  -1.11284
C     5.11377   1.34768  -0.03270
C     4.63560   1.05851   1.25067
C     3.27871   0.81370   1.46106
N    -0.05555   1.13194   0.79215
C    -1.37221   0.87425   0.96908
C    -1.84934   0.83966   2.39639
C    -2.28156   1.23475  -0.11147
C    -3.66830   1.38936   0.12091
C    -4.54873   1.64006  -0.92993
C    -4.07698   1.74714  -2.24439
C    -2.70429   1.61748  -2.48831
C    -1.81894   1.36943  -1.44115
C    -0.98284  -1.53022   0.32736
H    -3.32503  -2.81980  -1.28892
H    -3.44548  -1.10005  -1.76062
H    -3.50144  -1.55649  -0.04051
H    -1.40113  -1.46398  -2.98303
H     1.06003  -1.66941  -2.98861
H     1.49611  -3.08257  -0.68481
H     2.22570  -1.48849  -0.78160
H     2.64422  -2.36672   2.79611
H     2.84139  -2.27522   1.07493
H     2.16828   1.17462  -1.75811
H     4.59308   1.61679  -2.11678
H     6.17816   1.53479  -0.19122
H     5.32624   1.02220   2.09644
H     2.90336   0.58138   2.45882
H    -1.05958   0.45089   3.05107
H    -2.72187   0.17667   2.49195
H    -2.15296   1.83774   2.76227
H    -4.06260   1.30232   1.13385
H    -5.61595   1.75165  -0.72171
H    -4.76965   1.93922  -3.06701
H    -2.31946   1.70571  -3.50757
H    -0.75358   1.27001  -1.65161
H    -1.60824  -1.71415   1.19704
