56
Generated by autodE on: 2022-06-08. E = -1379.044060 Ha
C    -2.56586   3.16569  -1.16057
C    -2.73822   1.80618  -0.55127
O    -3.69066   1.50982   0.15020
C    -1.79381   0.67225  -1.01085
C    -2.69434  -0.33967  -1.72505
O    -0.88428   1.22535  -1.99519
N     0.27214   0.43696  -1.97384
C     0.24510  -0.56133  -2.86705
N     0.25799  -1.35191  -3.72522
C     0.64258   0.24494  -0.54773
C     1.68544  -0.86831  -0.42230
C     1.77191  -1.73336   0.67568
C     2.81791  -2.65324   0.77984
C     3.80070  -2.72335  -0.20962
C     3.74167  -1.84498  -1.29442
C     2.70345  -0.91730  -1.39076
C     1.34972   1.54235  -0.07646
C     2.12069   1.52002   1.09569
C     2.75929   2.67212   1.55838
C     2.65782   3.86832   0.84457
C     1.91733   3.89339  -0.33939
C     1.26782   2.74338  -0.79599
C    -0.84407   0.07130   0.13149
C    -0.84848   0.98942   1.38804
C    -0.37067   0.48097   2.72300
O    -1.21927   2.14367   1.28742
C    -1.32814  -1.34012   0.46606
C    -2.33720  -1.48315   1.43330
C    -2.89547  -2.73009   1.72210
C    -2.46875  -3.86696   1.03230
C    -1.49831  -3.73443   0.03643
C    -0.94185  -2.48599  -0.24769
H    -2.77812   3.09587  -2.24086
H    -1.53627   3.52825  -1.05164
H    -3.27584   3.86222  -0.69595
H    -2.12348  -1.16987  -2.15410
H    -3.21509   0.18422  -2.54034
H    -3.44060  -0.74734  -1.03460
H     1.02517  -1.70625   1.46321
H     2.85807  -3.31915   1.64456
H     4.61434  -3.44772  -0.12934
H     4.51357  -1.86877  -2.06682
H     2.70738  -0.21041  -2.22142
H     2.23609   0.59492   1.65758
H     3.34874   2.62601   2.47685
H     3.16055   4.76999   1.20166
H     1.83870   4.81608  -0.91899
H     0.69370   2.79651  -1.71727
H     0.19554  -0.45303   2.67564
H    -1.25521   0.31591   3.35746
H     0.22778   1.26996   3.19649
H    -2.73190  -0.60684   1.94760
H    -3.67456  -2.80657   2.48392
H    -2.90095  -4.84483   1.25652
H    -1.17098  -4.60705  -0.53317
H    -0.20878  -2.42385  -1.04852
