15
Generated by autodE on: 2022-06-08. E = -454.175792 Ha
C    -2.19581   1.05666   0.32862
C    -1.85405  -0.26125  -0.29285
O    -2.67099  -1.04084  -0.74982
C    -0.40129  -0.65319  -0.35963
C     0.08269  -1.90551  -0.93886
O     0.38967   0.21371   0.14013
N     1.75367  -0.04397   0.12963
C     2.35565   0.98820   0.69859
N     3.01751   1.83197   1.17862
H    -3.28257   1.20086   0.29901
H    -1.83625   1.08733   1.36957
H    -1.68855   1.87209  -0.21124
H    -0.75471  -2.50659  -1.30681
H     0.79433  -1.67765  -1.75289
H     0.66269  -2.45762  -0.17743
