59
Generated by autodE on: 2022-06-25. E = -1251.345692 Ha
C     5.18765   0.56085  -2.77077
C     4.50841   0.71684  -1.61628
C     5.16072   1.28370  -0.38297
C     3.09624   0.32622  -1.54511
C     2.31038   0.42329  -0.45673
C     0.87738   0.00435  -0.44941
C     0.52914  -1.14775   0.57239
C     1.49578  -1.26965   1.75993
C     0.55701  -2.43087  -0.27086
O    -0.40847  -2.93963  -0.80576
O     1.79735  -2.90660  -0.42231
C     1.95657  -4.04085  -1.28707
N    -0.81614  -0.81085   1.03303
C    -1.61157  -1.83054   1.68799
C    -1.42724   0.25322   0.23297
C    -2.10617  -0.42573  -0.98521
O    -1.68123  -0.50727  -2.12063
O    -3.22936  -1.04629  -0.60413
C    -3.87045  -1.88122  -1.57741
C    -2.45814   1.07921   0.99578
C    -3.40212   1.83802   0.28726
C    -4.29755   2.67545   0.95687
C    -4.26701   2.76360   2.35194
C    -3.33024   2.01130   3.06639
C    -2.43112   1.17998   2.39291
C    -0.16650   1.12201  -0.15072
C     0.26900   1.99781   1.03602
C    -0.36127   2.05228  -1.35051
H     6.24145   0.84064  -2.85640
H     4.70295   0.14728  -3.66054
H     5.11664   0.56638   0.45344
H     4.64026   2.19442  -0.04282
H     6.21447   1.53532  -0.56842
H     2.66596  -0.08206  -2.46736
H     2.72342   0.81911   0.47300
H     0.63780  -0.36711  -1.45345
H     1.50470  -0.33548   2.33521
H     1.17710  -2.08434   2.42686
H     2.51745  -1.48797   1.42741
H     1.38502  -4.89917  -0.90598
H     1.61620  -3.79781  -2.30405
H     3.02840  -4.27001  -1.29059
H    -1.97037  -2.62855   1.01650
H    -1.01242  -2.30164   2.48256
H    -2.48819  -1.37582   2.16653
H    -4.74166  -2.31709  -1.07495
H    -4.19037  -1.28680  -2.44529
H    -3.18488  -2.67408  -1.90901
H    -3.44261   1.77987  -0.80296
H    -5.02341   3.25849   0.38503
H    -4.96990   3.41358   2.87847
H    -3.29483   2.07280   4.15685
H    -1.69238   0.61174   2.95717
H     1.22467   2.48603   0.79818
H     0.39866   1.42750   1.96373
H    -0.46576   2.79248   1.22326
H     0.57645   2.59734  -1.53978
H    -0.63562   1.51346  -2.26335
H    -1.14008   2.80040  -1.13686
