36
Generated by autodE on: 2022-06-25. E = -899.771708 Ha
C     1.00792  -2.93436  -1.95765
O     1.10355  -1.76846  -1.13580
C     0.07880  -0.89627  -1.20716
O    -0.89988  -1.11573  -1.90935
C     0.32738   0.30918  -0.41491
C     1.67731   0.65891   0.05430
C     2.81330   0.53508  -0.77262
C     4.07958   0.87836  -0.30136
C     4.24502   1.35922   1.00327
C     3.12823   1.48903   1.83462
C     1.86051   1.13891   1.36816
N    -0.71709   1.14544  -0.14275
C    -0.46390   2.60285  -0.12290
C    -1.99573   0.74780   0.06494
C    -3.11288   1.73674  -0.08255
C    -2.24993  -0.57122   0.63551
O    -1.42264  -1.43802   0.90277
O    -3.55903  -0.74285   0.93209
C    -3.91028  -1.97797   1.55893
H     0.11320  -3.51914  -1.69803
H     0.96430  -2.66147  -3.02258
H     1.91293  -3.52043  -1.75763
H     2.69588   0.17759  -1.79650
H     4.94494   0.77979  -0.96131
H     5.23852   1.62948   1.36847
H     3.24505   1.85550   2.85743
H     0.99720   1.22490   2.03156
H    -1.04367   3.06828  -0.93004
H     0.59559   2.79333  -0.30139
H    -0.77311   3.03324   0.83741
H    -4.07240   1.21315  -0.13669
H    -3.00056   2.33321  -1.00030
H    -3.16470   2.44544   0.76336
H    -3.42559  -2.07070   2.54238
H    -5.00008  -1.95706   1.67972
H    -3.61538  -2.83246   0.93160
