36
Generated by autodE on: 2022-07-27. E = -899.771570 Ha
C    -0.94526  -2.88896  -1.87679
O    -0.58444  -2.09693  -0.74488
C    -1.04990  -0.83211  -0.72025
O    -1.88551  -0.44213  -1.52489
C    -0.54959  -0.02894   0.39605
C    -1.28920   1.17630   0.78826
C    -2.70023   1.21847   0.78079
C    -3.38220   2.37856   1.14466
C    -2.67834   3.52542   1.53106
C    -1.27997   3.50065   1.54204
C    -0.59404   2.34504   1.16853
N     0.60281  -0.36669   1.05193
C     0.66557  -0.13802   2.51311
C     1.68857  -0.94288   0.48180
C     2.70205  -1.63209   1.34426
C     1.95184  -0.72801  -0.93775
O     1.24129  -0.13146  -1.74272
O     3.16066  -1.21333  -1.30137
C     3.54224  -1.01087  -2.66377
H    -0.62936  -2.39678  -2.80862
H    -2.03116  -3.06309  -1.90913
H    -0.41715  -3.84316  -1.76033
H    -3.26346   0.32885   0.49734
H    -4.47495   2.38510   1.13636
H    -3.21640   4.43184   1.81803
H    -0.71757   4.39211   1.83038
H     0.49777   2.34843   1.15589
H     1.53357   0.48040   2.77170
H     0.75540  -1.11219   3.01113
H    -0.25656   0.33984   2.84770
H     3.32210  -0.92020   1.91760
H     2.21822  -2.30054   2.07255
H     3.37322  -2.23589   0.72607
H     2.80381  -1.45732  -3.34660
H     3.63729   0.06178  -2.88933
H     4.51352  -1.50593  -2.78262
