31
Generated by autodE on: 2022-06-17. E = -706.079764 Ha
C     2.95132  -0.29346  -1.05249
C     2.05730  -1.06177  -0.13636
O     2.28054  -2.19473   0.23800
C     0.76514  -0.36315   0.37632
C     0.76126  -0.55385   1.83341
N     0.78820  -0.68857   2.98518
N     0.75939   1.09047   0.11871
C    -0.42834   1.41094  -0.23348
C    -0.75167   2.78203  -0.53818
N    -1.05733   3.87261  -0.79342
C    -1.48739   0.32292  -0.27043
C    -2.44000   0.47106  -1.46222
C    -2.31168   0.42629   1.03060
C    -0.54449  -0.94451  -0.32599
C    -0.21411  -1.31236  -1.78121
C    -1.10203  -2.17962   0.37522
H     3.41644   0.52560  -0.47949
H     3.72854  -0.95738  -1.45156
H     2.37984   0.17453  -1.86682
H    -3.08583  -0.41633  -1.53607
H    -3.08967   1.34634  -1.31206
H    -1.91080   0.60041  -2.41516
H    -3.10070  -0.33918   1.03260
H    -1.69907   0.30139   1.93313
H    -2.79599   1.41319   1.08268
H    -1.12069  -1.66869  -2.28733
H     0.51804  -2.13091  -1.81914
H     0.18292  -0.46181  -2.35257
H    -2.02471  -2.50427  -0.12889
H    -1.33132  -2.00637   1.43406
H    -0.37374  -3.00176   0.31599
