13
Generated by autodE on: 2022-06-17. E = -470.016363 Ha
C    -2.96588  -0.13164  -0.72560
C    -1.47188  -0.23065  -0.85221
O    -0.89731  -0.59266  -1.86937
C    -0.68747   0.14256   0.35099
C    -1.26259   0.57326   1.57030
N    -1.76488   0.92556   2.56183
N     0.62391   0.05846   0.24901
C     1.75713  -0.07681  -0.02228
C     3.07864  -0.21639  -0.30324
N     4.21740  -0.33638  -0.54307
H    -3.43285  -0.43107  -1.67206
H    -3.25850   0.90017  -0.47317
H    -3.32215  -0.78042   0.09055
