18
Generated by autodE on: 2022-06-17. E = -235.968070 Ha
C     1.34076   1.20312   0.80028
C     0.67071   0.08361   0.04040
C     1.67934  -0.82644  -0.61855
C    -0.67074  -0.08374  -0.04025
C    -1.67926   0.82632   0.61878
C    -1.34082  -1.20294  -0.80059
H     1.98053   1.79720   0.12314
H     2.01669   0.79246   1.57183
H     0.64678   1.89262   1.29560
H     1.23874  -1.65568  -1.18475
H     2.35881  -1.25806   0.13828
H     2.32204  -0.25063  -1.30858
H    -2.32440   0.24991   1.30598
H    -2.35641   1.26106  -0.13841
H    -1.23847   1.65343   1.18794
H    -1.97946  -1.79830  -0.12349
H    -0.64688  -1.89135  -1.29746
H    -2.01780  -0.79182  -1.57096
