31
Generated by autodE on: 2022-06-17. E = -705.985906 Ha. Imaginary frequency = -316.1 cm-1
C     2.22343   0.28383  -1.62344
C     2.12366  -0.65459  -0.45408
O     2.65765  -1.76262  -0.43713
C     1.35756  -0.21081   0.71892
C     1.43156  -0.96282   1.91586
N     1.47412  -1.60673   2.88696
N     0.71075   0.95689   0.72592
C    -0.26503   1.53736   0.30920
C    -0.72456   2.85080   0.21310
N    -1.21517   3.89889   0.06980
C    -1.79278   0.07733  -0.64394
C    -1.87081   0.71867  -2.01307
C    -2.88896   0.50024   0.31514
C    -1.16373  -1.15098  -0.46837
C    -0.51579  -1.88619  -1.60660
C    -1.40238  -1.96859   0.77089
H     2.81792   1.16671  -1.33512
H     2.71302  -0.23194  -2.45848
H     1.23481   0.64739  -1.93814
H    -2.66239   0.23094  -2.61014
H    -2.13614   1.78376  -1.93831
H    -0.93500   0.63834  -2.58187
H    -3.80833  -0.07349   0.09833
H    -2.63414   0.32159   1.36839
H    -3.13738   1.56502   0.19670
H    -1.27502  -2.53572  -2.08438
H     0.29080  -2.54736  -1.25931
H    -0.12097  -1.22798  -2.38946
H    -2.37596  -2.48953   0.69175
H    -1.44123  -1.36246   1.68661
H    -0.62992  -2.74012   0.89767
