39
Generated by autodE on: 2022-10-21. E = -840.048103 Ha
C    -3.41411  -2.38148   0.50033
O    -2.81835  -1.10547   0.60664
C    -1.39250  -1.13599   0.67652
C    -0.93751  -1.42880   2.12560
C     0.40108  -2.15278   2.27819
C     1.62768  -1.48387   1.64872
C     1.67601  -1.57967   0.11224
C     1.54530  -0.20202  -0.61452
C     2.77210   0.57075  -0.31141
N     3.76310   1.11059  -0.04778
C     1.50961  -0.45926  -2.07019
N     1.44548  -0.69681  -3.20329
C     0.31336   0.61157  -0.22437
C    -0.89419   0.20770   0.20997
C    -1.75756   1.46572   0.32842
C    -2.76518   1.60717  -0.81407
N    -0.76386   2.56243   0.31732
N     0.42883   2.03036  -0.29914
C     0.67763   2.60428  -1.62231
H    -3.17914  -3.02917   1.36461
H    -3.09000  -2.90287  -0.42008
H    -4.50315  -2.23500   0.46200
H    -1.03785  -1.93876   0.00875
H    -1.71332  -2.05623   2.59197
H    -0.92507  -0.47863   2.68472
H     0.59078  -2.27891   3.35658
H     0.30776  -3.17180   1.86286
H     1.68688  -0.43110   1.97180
H     2.52906  -1.97092   2.04882
H     0.88521  -2.23040  -0.28040
H     2.62544  -2.01767  -0.22491
H    -2.29011   1.49199   1.29045
H    -2.24737   1.59815  -1.78559
H    -3.30650   2.56176  -0.71944
H    -3.49040   0.78348  -0.80086
H    -0.49895   2.73947   1.28748
H     0.71109   3.69755  -1.52957
H    -0.09422   2.33054  -2.36522
H     1.65787   2.27770  -1.99857
