13
Generated by autodE on: 2022-10-26. E = -228.677474 Ha
C    -1.76770  -1.02754  -0.59718
C    -1.17057  -0.43375   0.62331
N     0.00651   0.15795   0.57206
N     0.75928   0.32764  -0.48732
C     2.03389   0.91171  -0.13506
H    -2.72113  -1.52263  -0.36669
H    -1.08548  -1.76664  -1.05896
H    -1.95129  -0.26228  -1.37663
H    -1.66039  -0.42734   1.59609
H     0.34484   0.53393   1.47230
H     2.47413   1.38951  -1.02337
H     2.77574   0.16639   0.22383
H     1.95846   1.69002   0.65387
