26
Generated by autodE on: 2022-10-21. E = -611.263663 Ha
C    -1.48989   3.12448  -1.84686
O    -1.74254   1.73447  -1.93432
C    -0.57229   0.94944  -2.07200
C     0.22080   0.93026  -0.83190
C     0.66032   0.55189   0.23159
C     0.82053  -0.41961   1.32307
C     0.86230   0.22179   2.65310
N     0.85771   0.72041   3.69882
C     2.07439  -1.18171   1.13051
N     3.03339  -1.80817   0.95666
C    -0.41378  -1.40291   1.25097
C    -0.67954  -2.00928  -0.13848
C    -1.61771  -1.24840  -1.11697
C    -0.98835  -0.51378  -2.31899
H    -0.88078   3.37336  -0.95803
H    -0.96299   3.49521  -2.74558
H    -2.46097   3.63214  -1.76363
H     0.02728   1.31804  -2.92427
H    -1.28461  -0.82724   1.59718
H    -0.22318  -2.19683   1.98764
H     0.27823  -2.24463  -0.63343
H    -1.14537  -2.98515   0.06496
H    -2.30376  -1.99645  -1.54193
H    -2.25876  -0.54778  -0.55664
H    -1.70892  -0.48304  -3.15168
H    -0.10420  -1.06351  -2.67859
