27
Generated by autodE on: 2022-05-26. E = -3243.203147 Ha
C     4.08858  -1.89554   0.25959
O     2.67240  -1.84573   0.04155
C     2.08523  -0.64701   0.17638
O     2.70003   0.36013   0.46685
C     0.63096  -0.71330  -0.07547
C    -0.25607   0.31258   0.01380
Br    0.06189   2.07916   0.55642
C    -1.58800  -0.22954  -0.33725
C    -2.87323   0.54794  -0.45400
C    -4.14631  -0.22325  -0.27117
O    -2.84183   1.73924  -0.70356
N    -1.54320  -1.48806  -0.60753
C    -0.15579  -1.94901  -0.48509
C    -0.12243  -3.04297   0.59847
C     0.28756  -2.50418  -1.84948
H     4.37966  -2.94131   0.10892
H     4.33116  -1.57552   1.28324
H     4.61092  -1.24679  -0.45838
H    -4.18643  -0.62553   0.75475
H    -5.00676   0.43344  -0.45159
H    -4.16995  -1.08665  -0.95232
H    -0.78795  -3.86733   0.30503
H    -0.46002  -2.64149   1.56537
H     0.89846  -3.42842   0.71154
H     0.23317  -1.72305  -2.62209
H     1.32015  -2.87028  -1.78793
H    -0.37101  -3.33553  -2.13889
