17
Generated by autodE on: 2022-05-26. E = -364.141989 Ha
C     2.53242  -1.13749  -0.09507
C     1.83320   0.18990  -0.24841
O     2.24947   1.08882  -0.98201
C     0.67260   0.39050   0.59855
N    -0.51107   0.13411   0.38338
C    -1.75757  -0.09187   0.24281
C    -2.34620  -1.39976   0.68474
C    -2.65137   0.94657  -0.36971
H     2.45574  -1.52727   0.93014
H     3.58669  -1.03924  -0.39162
H     2.04026  -1.86232  -0.76713
H    -3.14513  -1.22140   1.42456
H    -2.81032  -1.91593  -0.17276
H    -1.58657  -2.05729   1.12827
H    -3.46267   1.20556   0.33179
H    -3.12824   0.54670  -1.28072
H    -2.09547   1.85754  -0.62902
