27
Generated by autodE on: 2022-05-26. E = -3243.070826 Ha. Imaginary frequency = -212.1 cm-1
C     3.78286  -2.24769   1.23884
O     2.66068  -1.35381   1.24665
C     2.45305  -0.64545   0.12054
O     3.15517  -0.74746  -0.87602
C     1.34437   0.24713   0.24471
C     0.34727   0.96554   0.28426
Br   -0.56318   2.51570   0.57428
C    -1.47403  -0.46339  -0.46187
C    -2.86233  -0.04876  -0.54446
C    -3.65470  -0.19748   0.72705
O    -3.29251   0.50355  -1.55540
N    -0.85254  -1.47497  -0.73463
C     0.03858  -2.37505  -0.92226
C     0.32057  -3.38175   0.15195
C     0.70631  -2.50306  -2.25594
H     3.77120  -2.75141   2.21230
H     4.72089  -1.68727   1.11289
H     3.68957  -2.98643   0.43018
H    -3.41571   0.64449   1.39911
H    -4.72761  -0.16309   0.49126
H    -3.40114  -1.12909   1.25524
H    -0.17573  -4.33797  -0.08977
H    -0.03238  -3.03630   1.13261
H     1.40143  -3.57947   0.19872
H     0.35686  -1.73591  -2.95909
H     1.79662  -2.40168  -2.12611
H     0.51626  -3.50270  -2.68135
