37
Generated by autodE on: 2022-05-31. E = -714.254882 Ha
C     3.88928  -0.83204  -1.42420
C     2.94818   0.28949  -0.94774
C     3.76464   1.41210  -0.28867
C     1.92744  -0.25270  -0.04545
C     0.87080  -0.66961   0.37864
C    -0.56288  -0.97738   0.31594
C    -0.83792  -2.27188   0.96779
N    -1.05794  -3.30115   1.45641
C    -1.44970   0.11006   0.95277
C    -0.94260   1.37780   1.25691
C    -1.78431   2.36860   1.77388
C    -3.13725   2.10028   1.99307
C    -3.64766   0.83288   1.69156
C    -2.80915  -0.15561   1.17377
C    -0.88541  -1.12640  -1.22344
C    -0.41401   0.04463  -2.10568
C     1.00723  -0.02160  -2.73390
C     2.11977   0.86803  -2.14063
H     4.43112  -1.27455  -0.57446
H     4.62831  -0.42052  -2.12937
H     3.33475  -1.63533  -1.93133
H     4.36472   1.02266   0.54811
H     4.45070   1.85817  -1.02570
H     3.10685   2.20637   0.09611
H     0.11340   1.59267   1.09001
H    -1.37503   3.35428   2.00731
H    -3.79290   2.87389   2.39940
H    -4.70382   0.61118   1.86135
H    -3.21750  -1.14207   0.94160
H    -0.42694  -2.06517  -1.57063
H    -1.97584  -1.24666  -1.30618
H    -0.54436   0.99650  -1.56434
H    -1.13233   0.08682  -2.93894
H     1.34478  -1.07078  -2.77640
H     0.90098   0.28848  -3.78526
H     1.67592   1.82391  -1.81604
H     2.84601   1.11404  -2.93350
