15
Generated by autodE on: 2022-05-31. E = -304.927733 Ha
C    -2.81474  -0.41339   0.53589
C    -1.63556   0.48395   0.42234
N    -0.42956   0.06836   0.10389
C    -0.23486  -1.37154  -0.15244
C     0.66611   0.91254  -0.00622
C     1.93232   0.46425  -0.34352
N     3.02714   0.12709  -0.62789
H    -2.67675  -1.19342   1.30648
H    -3.03380  -0.94044  -0.41038
H    -3.69913   0.17788   0.80744
H    -1.73456   1.55661   0.60399
H    -0.85826  -1.67820  -1.00199
H     0.81603  -1.56805  -0.38048
H    -0.53041  -1.94358   0.73592
H     0.48560   1.96968   0.18628
