15
Generated by autodE on: 2022-07-26. E = -304.930407 Ha
C    -1.22221  -1.59351  -0.09346
C     0.23828  -1.42793  -0.27619
N     0.89262  -0.32374   0.00792
C     2.36577  -0.34527  -0.08618
C     0.37763   0.90166   0.40017
C    -0.91990   1.33265   0.14538
N    -1.99395   1.76856  -0.06433
H    -1.81602  -1.06609  -0.86060
H    -1.48008  -2.66038  -0.14118
H    -1.53871  -1.18862   0.88437
H     0.84759  -2.25631  -0.63795
H     2.78495   0.01581   0.86209
H     2.68806   0.32093  -0.89731
H     2.70965  -1.36787  -0.27130
H     1.10476   1.61865   0.77653
