52
Generated by autodE on: 2022-05-31. E = -1019.189194 Ha. Imaginary frequency = -290.0 cm-1
C    -2.33387  -1.62344   7.19388
C    -0.85420  -1.44245   7.10499
C    -0.74197  -0.70466   4.85818
C    -0.83716   0.53334   4.89220
C    -0.70752   0.92598   7.38339
C    -2.03212   1.25861   7.73114
N    -3.10643   1.62200   8.02391
N    -0.19900  -0.34440   7.49561
C     1.26736  -0.40148   7.44093
C    -0.84352   1.88314   4.27160
C    -1.84616   2.84164   4.93531
C     0.56926   2.48863   4.37919
C    -1.26788   1.73431   2.78125
C    -0.42659   0.85788   1.84210
C    -0.75157  -0.64494   1.73772
C     0.01625  -1.61769   2.63922
C    -0.61907  -1.93963   4.03939
C     0.33929  -2.85546   4.69350
N     1.13042  -3.55562   5.17422
C    -1.97038  -2.65708   3.85360
C    -2.01314  -4.03368   3.59351
C    -3.23269  -4.67501   3.36099
C    -4.42531  -3.94575   3.38092
C    -4.38756  -2.57175   3.63449
C    -3.16802  -1.93160   3.87086
H    -2.90292  -0.83392   6.69209
H    -2.60072  -2.58466   6.73573
H    -2.65221  -1.65501   8.25228
H    -0.25139  -2.34900   7.15484
H     0.01788   1.73031   7.50577
H     1.68983   0.24938   8.21638
H     1.60288  -0.05612   6.45115
H     1.60207  -1.43155   7.60113
H    -2.85215   2.39911   4.98765
H    -1.53495   3.10659   5.95410
H    -1.90993   3.77245   4.35021
H     0.59875   3.46864   3.87615
H     0.84649   2.63488   5.43369
H     1.32715   1.83924   3.91777
H    -1.27757   2.75795   2.37070
H    -2.31479   1.38626   2.75731
H    -0.57283   1.27498   0.83259
H     0.64818   0.98774   2.05305
H    -0.51038  -0.95059   0.70729
H    -1.83759  -0.80338   1.83945
H     0.11950  -2.58532   2.12395
H     1.03503  -1.23805   2.81598
H    -1.08862  -4.61510   3.57560
H    -3.24871  -5.74987   3.16601
H    -5.37951  -4.44685   3.20216
H    -5.31304  -1.99146   3.65424
H    -3.14594  -0.86197   4.07956
