47
Generated by autodE on: 2022-06-20. E = -923.822724 Ha
C     0.49066  -1.36639  -2.28639
C     0.08697  -1.77889  -1.07716
C    -0.44850  -3.16501  -0.83903
C     0.13849  -0.88916   0.14818
C     1.09040   0.31423   0.12383
C     2.52803  -0.08734   0.23326
C     3.55140   0.34311  -0.52778
C     4.95132  -0.16143  -0.29742
C     3.42122   1.33537  -1.65175
C     0.55100   1.22167   1.26246
C     1.00689   2.66547   1.05340
C     0.96803   0.75043   2.66506
N    -0.90156   1.09348   1.02382
C    -1.84526   1.75188   1.90098
C    -1.24849  -0.22856   0.54987
C    -1.89864  -1.05961   1.59238
N    -2.36830  -1.64462   2.47819
C    -2.18952  -0.20179  -0.67219
O    -3.06172  -1.02388  -0.86117
O    -1.88776   0.77819  -1.50872
C    -2.58670   0.79194  -2.76461
H     0.89036  -0.36564  -2.46124
H     0.43819  -2.03628  -3.14966
H    -1.46756  -3.13132  -0.41989
H     0.17714  -3.69697  -0.10183
H    -0.47708  -3.75456  -1.76662
H     0.42118  -1.52723   0.99802
H     0.91647   0.87407  -0.80292
H     2.75139  -0.81537   1.02173
H     5.00068  -0.88147   0.53287
H     5.34531  -0.64993  -1.20635
H     5.63811   0.67432  -0.07500
H     3.77870   0.89195  -2.59757
H     2.39493   1.69214  -1.80436
H     4.06182   2.21410  -1.46162
H     2.10657   2.70974   1.06090
H     0.65075   3.05304   0.08727
H     0.64169   3.32727   1.85354
H     2.05336   0.86106   2.80522
H     0.70588  -0.30220   2.84990
H     0.46985   1.36154   3.43303
H    -2.84628   1.74591   1.43984
H    -1.55286   2.80211   2.03873
H    -1.93407   1.28588   2.90242
H    -2.37722  -0.13419  -3.31907
H    -3.66863   0.88944  -2.59911
H    -2.20337   1.66025  -3.31183
