24
Generated by autodE on: 2022-06-20. E = -572.272453 Ha
C     3.23209   1.28552  -0.73746
O     2.34235   0.38876  -0.07400
C     1.02443   0.47884  -0.41493
O     0.62144   1.31985  -1.22086
C     0.22647  -0.49649   0.25927
C     0.79045  -1.50796   1.04906
N     1.25012  -2.35994   1.71124
N    -1.17426  -0.55357  -0.01196
C    -1.68265  -1.81626  -0.57482
C    -1.94903   0.49762   0.10694
C    -1.49198   1.71712   0.81609
C    -3.33090   0.48579  -0.45501
H     2.96373   2.33374  -0.53559
H     4.23129   1.07526  -0.33575
H     3.22759   1.11893  -1.82576
H    -1.07510  -2.63740  -0.17794
H    -2.72811  -1.97689  -0.29185
H    -1.58431  -1.79730  -1.66998
H    -0.68131   1.49647   1.52390
H    -2.34895   2.17571   1.33040
H    -1.10927   2.44699   0.08333
H    -3.68930   1.51578  -0.57778
H    -4.01251  -0.02300   0.24975
H    -3.38677  -0.03852  -1.41840
