23
Generated by autodE on: 2022-10-06. E = -684.220651 Ha
C     1.41156  -1.79576  -0.57049
N     1.22707  -0.38402  -0.23244
C     2.24044   0.48180  -0.11211
C     3.60522   0.23081  -0.29974
N     4.74450   0.02805  -0.45565
O     1.77369   1.68654   0.24777
C     0.36632   1.60331   0.38014
O    -0.27875   2.58283   0.71146
C     0.04229   0.25024   0.04833
C    -1.29604  -0.33162   0.02864
C    -1.68871  -1.32352  -0.89374
C    -2.98665  -1.83560  -0.87257
C    -3.92137  -1.36321   0.05355
C    -3.54841  -0.36552   0.96053
C    -2.25187   0.14610   0.95138
H     0.71760  -2.39631   0.02786
H     1.21877  -1.95292  -1.63898
H     2.44297  -2.08280  -0.33686
H    -0.99246  -1.67984  -1.65184
H    -3.27152  -2.60326  -1.59571
H    -4.93686  -1.76552   0.06438
H    -4.27132   0.01372   1.68657
H    -1.96720   0.91901   1.66572
