33
Generated by autodE on: 2022-10-06. E = -1139.255728 Ha. Imaginary frequency = -410.2 cm-1
C    -0.21352  -2.02003   1.94191
N    -0.37594  -1.48363   0.60271
C    -1.57360  -0.92682   0.18389
C    -2.81479  -1.51609   0.58329
N    -3.80284  -1.98257   0.98094
O    -1.43316  -0.62869  -1.15393
C    -0.07330  -0.50533  -1.40724
O     0.33221  -0.12461  -2.48973
C     0.59393  -0.94388  -0.19667
C     2.04348  -1.02678  -0.01726
C     2.64813  -0.90836   1.25117
C     4.03517  -0.96081   1.38257
C     4.84746  -1.12244   0.25554
C     4.25976  -1.22632  -1.00862
C     2.87270  -1.17799  -1.14757
C    -0.15316   1.32708   0.61445
C     0.17427   2.22584  -0.54260
O     1.38621   2.57430  -0.65142
O    -0.75652   2.55483  -1.33197
C    -1.44078   0.94062   1.01295
C    -2.71948   1.68112   0.57553
O    -3.51832   1.13529  -0.22442
O    -2.88435   2.78496   1.15636
H    -1.10662  -2.60318   2.19809
H    -0.08841  -1.20967   2.67676
H     0.66032  -2.68032   1.96625
H     2.03963  -0.74302   2.13861
H     4.48452  -0.86269   2.37335
H     5.93398  -1.15962   0.36244
H     4.88540  -1.34804  -1.89579
H     2.42265  -1.25755  -2.13606
H     0.68005   1.14326   1.29592
H    -1.51675   0.60664   2.05634
