46
Generated by autodE on: 2022-10-22. E = -1222.231779 Ha
C     3.95435   2.90352  -0.98429
N     2.84361   2.19481  -0.38540
C     2.92759   0.95456   0.11364
O     3.96172   0.27398   0.11753
C     1.63821   0.39815   0.71875
N     0.53349   1.33738   0.65809
C    -0.53159   0.77233   0.22409
C    -1.80960   1.49797   0.07805
C    -1.86355   2.87978   0.34452
C    -3.06135   3.58002   0.22549
C    -4.23150   2.91296  -0.15830
C    -4.19177   1.54215  -0.42346
C    -2.99052   0.83861  -0.30891
C    -0.37940  -0.69809  -0.14506
C    -1.26808  -1.59509   0.69737
O    -1.86691  -2.57104   0.29862
O    -1.31674  -1.16287   1.95669
C    -2.11112  -1.92538   2.87831
C    -0.45877  -0.92254  -1.70216
C    -0.21551  -2.39468  -1.99124
C     1.09128  -2.58710  -1.77590
C     1.63694  -1.23277  -1.36439
O     0.78901  -0.32605  -2.08510
C     1.15272  -0.95867   0.11158
O     1.31512  -2.05004   0.98231
C     2.64794  -2.49013   1.20142
H     3.71299   3.20789  -2.01443
H     4.20709   3.80649  -0.40632
H     4.82772   2.24099  -1.00539
H     1.93996   2.65316  -0.30258
H     1.87921   0.21246   1.77934
H    -0.95199   3.39558   0.64724
H    -3.08581   4.65204   0.43404
H    -5.17119   3.46250  -0.25003
H    -5.09927   1.01329  -0.72258
H    -2.99223  -0.22935  -0.52713
H    -1.72631  -2.95239   2.95227
H    -2.02402  -1.41494   3.84395
H    -3.15993  -1.94643   2.54979
H    -1.30355  -0.43459  -2.19752
H    -0.98473  -3.12053  -2.24532
H     1.66119  -3.51509  -1.80461
H     2.69343  -1.02804  -1.55338
H     3.27993  -1.68998   1.61765
H     3.11640  -2.85674   0.27226
H     2.58936  -3.31939   1.91941
