23
Generated by autodE on: 2022-10-22. E = -572.032461 Ha
C    -4.95251  -0.99307   0.01811
N    -3.79937  -1.78890   0.38107
C    -2.49684  -1.38887   0.32306
O    -1.57369  -2.16737   0.65907
C    -2.24472  -0.04176  -0.13842
N    -0.97636   0.34338  -0.19053
C     0.17415   0.56305  -0.19273
C     1.56163   0.81956  -0.18659
C     2.44601  -0.19068   0.25829
C     3.81630   0.05506   0.26592
C     4.32119   1.28943  -0.16059
C     3.44327   2.28756  -0.59990
C     2.06841   2.06628  -0.61841
H    -4.93113  -0.68720  -1.04161
H    -5.03831  -0.08117   0.63278
H    -5.85797  -1.59231   0.17744
H    -3.94116  -2.74020   0.70304
H    -2.99993   0.67786  -0.44614
H     2.04372  -1.14945   0.58932
H     4.49761  -0.72646   0.60951
H     5.39752   1.47335  -0.15064
H     3.83363   3.25158  -0.93348
H     1.38112   2.84120  -0.96106
