23
Generated by autodE on: 2022-10-22. E = -650.084139 Ha
C     3.55277  -0.29784   1.05316
O     2.25847  -0.57235   0.51047
C     1.41124   0.48032   0.40010
O     1.73451   1.60221   0.76628
C     0.16542   0.06620  -0.21523
C    -1.09983   0.57873  -0.24995
O    -1.74411   1.60551   0.26239
C    -1.10108   2.48269   1.19980
C    -1.94723  -0.45336  -1.02774
C    -2.09418  -1.67590  -0.09690
C    -0.87004  -2.21129  -0.05735
C    -0.00489  -1.29560  -0.94795
O    -0.96683  -0.92614  -1.95650
H     4.08602   0.44240   0.43809
H     3.47285   0.08131   2.08288
H     4.09379  -1.25174   1.04613
H    -0.73623   1.90413   2.06052
H    -1.87198   3.19320   1.52075
H    -0.26341   3.00690   0.72475
H    -2.84722  -0.05495  -1.50817
H    -3.00302  -1.95442   0.43472
H    -0.49913  -3.06040   0.51591
H     0.90502  -1.72026  -1.38125
