12
Generated by autodE on: 2022-05-28. E = -414.893129 Ha
C     2.30886   0.59638   0.05810
C     1.17183  -0.07436  -0.64287
O     1.26869  -0.65463  -1.71466
C    -0.15932  -0.02216   0.02495
C    -0.41463   0.61508   1.26510
N    -0.60379   1.14298   2.28452
N    -1.16078  -0.62648  -0.60247
O    -2.33935  -0.71255  -0.23895
H     2.44341   0.15382   1.05881
H     3.22796   0.48720  -0.53022
H     2.07763   1.66418   0.20624
H    -0.86986  -1.06657  -1.50300
