27
Generated by autodE on: 2022-05-28. E = -906.951974 Ha. Imaginary frequency = -414.6 cm-1
C    -2.41848   1.18415   1.67059
C    -2.45322   0.43574   0.37320
O    -3.22599   0.70204  -0.52920
C    -1.54472  -0.75440   0.18146
C    -2.13190  -1.86215  -0.52408
N    -2.63129  -2.74061  -1.09642
N    -0.55822  -1.05762   1.05778
O     0.31955  -1.91901   0.67052
C     0.79232  -1.33991  -1.22544
C     2.10729  -0.54587  -1.11491
O     1.89332   0.47415  -2.10492
C     0.64512   0.95011  -1.56299
C     1.10821   1.27107  -0.12749
C     0.65976   2.34694   0.66908
N     0.29320   3.25595   1.29655
C     2.01794   0.30941   0.16400
C     2.69318   0.05969   1.37898
N     3.25592  -0.16501   2.37240
C    -0.16800  -0.37105  -1.54469
H    -2.87386   2.17269   1.53123
H    -3.02490   0.60801   2.39186
H    -1.41445   1.29310   2.09864
H    -0.24234  -0.31797   1.69647
H     0.78030  -2.38133  -1.53658
H     3.03822  -1.09847  -1.26500
H     0.22469   1.78145  -2.13400
H    -0.98344  -0.50102  -2.25390
