23
Generated by autodE on: 2022-06-01. E = -517.879590 Ha
C    -2.02446  -1.97730  -0.57644
N    -1.99607  -0.72028  -0.24297
C    -0.98504   0.18187   0.00022
C    -1.49940   1.48720   0.28115
C    -0.56314   2.61791   0.63782
O    -2.73935   1.70959   0.25270
C     0.42721  -0.23223  -0.04016
C     1.37774   0.50684  -0.77243
C     2.72267   0.13087  -0.79154
C     3.14857  -1.00369  -0.09415
C     2.21575  -1.75544   0.62880
C     0.87357  -1.37384   0.65857
H    -2.99753  -2.44447  -0.72591
H    -1.09909  -2.53588  -0.71406
H    -2.89819  -0.22244  -0.14377
H    -1.07649   3.28427   1.34652
H    -0.33238   3.20982  -0.26387
H     0.38624   2.27565   1.06957
H     1.05340   1.38048  -1.34060
H     3.44025   0.72250  -1.36544
H     4.19933  -1.30208  -0.11521
H     2.53740  -2.64091   1.18274
H     0.16425  -1.95978   1.24729
