23
Generated by autodE on: 2022-07-27. E = -517.874485 Ha
C     2.41192   2.04015  -0.88237
N     1.45953   1.41342  -0.24144
C     0.60991   0.36737  -0.57257
C     0.70951  -0.22590  -1.86582
C    -0.12518  -1.44642  -2.20808
O     1.49766   0.20835  -2.74390
C    -0.30871  -0.04772   0.50717
C    -1.66645  -0.33596   0.25343
C    -2.52853  -0.71390   1.28377
C    -2.06795  -0.79404   2.60240
C    -0.73000  -0.49507   2.87634
C     0.13909  -0.13633   1.84377
H     2.66115   1.74438  -1.89570
H     2.91492   2.84772  -0.35023
H     1.29384   1.76658   0.70482
H    -1.06493  -1.14103  -2.69746
H    -0.38300  -2.06339  -1.33741
H     0.44301  -2.04793  -2.93262
H    -2.05670  -0.23812  -0.76015
H    -3.57546  -0.92975   1.05596
H    -2.74612  -1.08349   3.40846
H    -0.35245  -0.55755   3.90003
H     1.18904   0.05778   2.08002
