51
Generated by autodE on: 2022-06-01. E = -1209.286981 Ha. Imaginary frequency = -292.9 cm-1
C     2.45402  -3.20044   1.29676
C     1.16411  -2.62513   0.76519
O     0.20096  -3.36690   0.54814
C     1.00992  -1.18816   0.55024
C     1.87028  -0.14333   0.40589
C     3.32359  -0.05110   0.29086
C     4.06266  -1.00812  -0.43265
C     5.44752  -0.89390  -0.55073
C     6.11930   0.17552   0.05109
C     5.39556   1.14045   0.76027
C     4.00893   1.03727   0.86938
C     0.94269   1.07862   0.17581
O    -0.18689   0.71503   0.97825
C    -0.39414  -0.56570   0.35434
C    -0.49374  -0.15948  -1.12246
C     0.35215   0.91817  -1.24531
C    -0.98820   2.76904  -1.30036
N    -2.01764   2.26433  -0.62292
C    -2.77343   1.16038  -0.94640
C    -2.93262   0.77996  -2.33419
C    -3.82613  -0.39097  -2.69372
O    -2.37423   1.39409  -3.26688
C    -3.59002   0.62097   0.16445
C    -3.76577  -0.76460   0.35880
C    -4.51503  -1.25191   1.43085
C    -5.10021  -0.37311   2.34807
C    -4.92864   1.00336   2.17635
C    -4.18985   1.49325   1.09753
H     3.00759  -3.67613   0.47164
H     2.20458  -3.98940   2.02179
H     3.10277  -2.44954   1.76361
H     3.53923  -1.82714  -0.92668
H     6.00496  -1.63977  -1.12200
H     7.20443   0.26249  -0.04072
H     5.91443   1.98043   1.22767
H     3.45077   1.79262   1.42592
H     1.34992   2.05710   0.44905
H    -1.22778  -1.11260   0.80120
H    -0.85198  -0.82104  -1.90779
H     0.87877   1.22990  -2.14595
H    -0.40446   3.53094  -0.78246
H    -1.01125   2.73214  -2.38103
H    -1.97872   2.43981   0.38005
H    -4.07200  -0.30942  -3.76123
H    -4.75005  -0.42763  -2.10089
H    -3.29269  -1.34266  -2.53998
H    -3.28868  -1.47236  -0.31756
H    -4.62871  -2.33137   1.55764
H    -5.68198  -0.75773   3.18887
H    -5.38334   1.70566   2.87938
H    -4.09332   2.57402   0.96922
