58
Generated by autodE on: 2022-06-12. E = -6415.366094 Ha
C     2.28788  -9.02387   0.37329
N     1.91031  -7.63151   0.51272
C     2.24584  -6.70630  -0.40950
O     2.98959  -6.96503  -1.35903
C     1.67646  -5.30640  -0.15518
C     2.15136  -4.27886  -1.19138
C     1.57113  -2.88679  -0.94644
C     1.76369  -2.35985   0.48869
C     0.52786  -2.34509   1.39684
C    -0.07382  -3.64807   1.94805
Br    1.26867  -4.54701   3.17753
Br   -1.51100  -3.03545   3.19188
C    -0.57144  -4.65257   0.94137
C     0.18319  -5.32664   0.03097
C    -0.75583  -6.15530  -0.76933
C    -0.36375  -7.07409  -1.86659
C     0.16449  -6.58601  -3.07061
C     0.54096  -7.47214  -4.08195
C     0.39882  -8.85067  -3.89686
C    -0.13582  -9.34193  -2.70140
C    -0.52183  -8.45783  -1.69198
N    -1.98366  -6.04937  -0.38794
C    -2.02163  -5.10175   0.74106
C    -2.91758  -3.96515   0.18084
C    -4.32472  -4.31267  -0.22981
O    -2.45832  -2.85931  -0.02279
C    -2.57339  -5.85359   1.96340
C    -1.87006  -6.98398   2.40468
C    -2.31215  -7.71433   3.50845
C    -3.47171  -7.32654   4.18747
C    -4.17839  -6.20321   3.75234
C    -3.73154  -5.47014   2.64908
H     1.78741  -9.60704   1.15589
H     1.98498  -9.41428  -0.61067
H     3.37684  -9.15816   0.47438
H     1.27350  -7.37184   1.25833
H     2.10894  -5.00903   0.81027
H     3.25071  -4.24140  -1.13461
H     1.90263  -4.61771  -2.20619
H     2.05357  -2.19463  -1.65373
H     0.49832  -2.87730  -1.20031
H     2.07100  -1.30403   0.43749
H     2.59914  -2.87737   0.98844
H    -0.30227  -1.86323   0.85791
H     0.75116  -1.71615   2.26964
H     0.27137  -5.51020  -3.21777
H     0.94819  -7.08347  -5.01804
H     0.70292  -9.54279  -4.68554
H    -0.25092 -10.41796  -2.55250
H    -0.92837  -8.83698  -0.75251
H    -4.39446  -4.16742  -1.31986
H    -5.01950  -3.59984   0.24038
H    -4.61523  -5.33906   0.01521
H    -0.96605  -7.30081   1.88244
H    -1.74714  -8.58928   3.83810
H    -3.82031  -7.89591   5.05222
H    -5.08216  -5.88487   4.27705
H    -4.28834  -4.58171   2.35377
