31
Generated by autodE on: 2022-06-12. E = -747.807798 Ha
C    -0.59294  -3.13813  -0.05748
C    -1.69826  -2.10041   0.04490
O    -2.88348  -2.47352   0.11221
C    -1.30194  -0.71044   0.05930
N     0.02442  -0.48915  -0.02145
C     1.17570  -0.31273  -0.09263
C     2.57279  -0.12988  -0.17370
C     3.41854  -1.26190  -0.19596
C     4.79586  -1.07772  -0.27747
C     5.33811   0.21204  -0.33375
C     4.49593   1.33016  -0.31000
C     3.11485   1.17311  -0.23174
C    -2.16472   0.47456   0.15385
C    -1.60254   1.77302   0.17525
C    -2.40756   2.90813   0.26332
C    -3.79993   2.79117   0.33404
C    -4.37028   1.51459   0.31465
C    -3.57322   0.37224   0.22632
H     0.11101  -3.05983   0.78682
H    -1.04814  -4.13673  -0.05565
H    -0.00655  -3.00950  -0.98172
H     2.98505  -2.26216  -0.15004
H     5.45305  -1.94961  -0.29587
H     6.42001   0.34621  -0.39648
H     4.91890   2.33590  -0.35416
H     2.45065   2.03842  -0.21486
H    -0.51975   1.90143   0.12282
H    -1.93875   3.89543   0.27720
H    -4.42948   3.68123   0.40288
H    -5.45628   1.40076   0.36880
H    -4.02813  -0.61445   0.21195
