27
Generated by autodE on: 2022-06-12. E = -5667.440453 Ha
C     2.68639  -3.36531  -2.42204
N     2.25140  -2.03806  -2.03560
C     3.07431  -0.98042  -1.94668
O     4.28533  -1.02541  -2.18229
C     2.45075   0.36089  -1.51995
C     1.01943   0.32399  -1.26974
C    -0.02500   0.26767  -0.65285
C    -0.82157   0.22655   0.54046
Br   -1.65122   2.02551   0.83601
Br   -2.30074  -1.10079   0.38371
C     0.07551  -0.14215   1.73527
C     1.39357   0.65255   1.85219
C     2.64686   0.13224   1.09216
C     3.09569   0.86211  -0.19131
H     2.52563  -4.08631  -1.60531
H     2.13462  -3.71538  -3.30812
H     3.75614  -3.33235  -2.65916
H     1.27373  -1.90389  -1.79450
H     2.71039   1.06488  -2.32640
H     0.30588  -1.21488   1.63388
H    -0.52298  -0.02661   2.65061
H     1.63860   0.63959   2.92497
H     1.21269   1.71234   1.60771
H     3.49212   0.21150   1.79275
H     2.53848  -0.94709   0.88961
H     2.88917   1.93952  -0.09834
H     4.18334   0.75388  -0.31654
