40
Generated by autodE on: 2022-05-31. E = -1078.556633 Ha
C     0.24186   3.21286  -1.39164
N     0.21882   2.02998  -0.54290
C     1.31242   1.05418  -0.65031
C     2.56729   1.57920   0.06241
C     1.63323   0.76974  -2.07950
N     1.85496   0.60115  -3.20541
C     0.68318  -0.20100  -0.03642
C    -0.63451  -0.04577   0.14333
C    -1.63537  -0.97592   0.79316
C    -2.99974  -0.71970   0.32080
N    -4.09118  -0.53157  -0.02380
C    -1.61156  -0.92913   2.35073
C    -0.37374  -1.53408   3.01961
C     0.94820  -0.75552   2.87179
C     1.98430  -1.29547   1.88858
C     1.52315  -1.40528   0.37805
C     0.80415  -2.67888   0.15824
N     0.29873  -3.70721  -0.01302
C     2.73766  -1.54166  -0.45481
N     3.70730  -1.68178  -1.07253
C    -1.04524   1.33280  -0.40141
C    -1.76328   1.15177  -1.70153
N    -2.22889   1.03897  -2.75686
C    -1.93051   2.07935   0.52615
N    -2.58915   2.67653   1.26817
H     0.08762   2.98195  -2.46105
H     1.20618   3.72312  -1.27500
H    -0.54709   3.90395  -1.06301
H     3.41686   0.89490  -0.05066
H     2.34095   1.71754   1.12754
H     2.85503   2.54434  -0.37597
H    -1.41967  -2.00805   0.48121
H    -2.49778  -1.48523   2.69058
H    -1.74410   0.11517   2.67236
H    -0.61839  -1.58541   4.09137
H    -0.24784  -2.58129   2.69946
H     1.46580  -0.75505   3.84344
H     0.73990   0.30276   2.64947
H     2.86218  -0.63618   1.89966
H     2.32607  -2.29902   2.18130
