46
Generated by autodE on: 2022-06-21. E = -1130.168837 Ha
C     2.39097   1.60491   2.48938
N     2.20790   0.73474   1.34795
C     1.50022  -0.39814   1.37321
O     1.02410  -0.91078   2.39265
C     1.27605  -1.06674  -0.00265
C     1.78567  -2.49890   0.08407
O     1.99045  -0.35459  -1.01771
C     1.12089   0.34363  -1.93229
C     1.09563  -0.33722  -3.28883
C    -0.22765   0.39124  -1.17890
O    -1.37660   0.48117  -1.98883
C    -1.59649   1.69646  -2.69955
C    -0.25410   1.58504  -0.19033
O     0.28926   2.63550  -0.50085
C    -1.03526   1.46501   1.05930
C    -1.24168   2.71344   1.86001
C    -1.47128   0.25460   1.51146
C    -2.19625   0.12370   2.81241
C    -1.19784  -1.00066   0.76808
O    -1.71598  -2.05897   1.08504
C    -0.23846  -0.96566  -0.42911
O    -0.47711  -2.05744  -1.27388
C    -1.76937  -2.27217  -1.83793
H     3.44969   1.65742   2.78818
H     1.80416   1.21885   3.33147
H     2.04657   2.62041   2.24176
H     2.54863   1.02510   0.43475
H     2.84022  -2.48536   0.39712
H     1.20435  -3.06476   0.82376
H     1.70657  -2.98865  -0.89239
H     1.52121   1.36063  -2.03635
H     0.69118  -1.35443  -3.22434
H     0.49266   0.24085  -4.00366
H     2.12358  -0.38623  -3.67891
H    -0.69448   2.03987  -3.22923
H    -1.94599   2.50273  -2.03408
H    -2.38201   1.47992  -3.43608
H    -0.70029   2.64423   2.81879
H    -2.30620   2.85009   2.10667
H    -0.88189   3.59579   1.31888
H    -1.52692   0.40223   3.64363
H    -2.54228  -0.90425   2.96918
H    -3.05866   0.80696   2.85555
H    -1.76922  -1.98500  -2.90032
H    -2.55897  -1.70931  -1.32546
H    -1.98872  -3.34769  -1.75477
