26
Generated by autodE on: 2022-06-21. E = -689.460867 Ha
C     3.14644  -1.25405  -0.23860
O     1.77572  -1.65786  -0.15577
C     0.76962  -0.78519  -0.10805
C     0.80346   0.57558  -0.17664
O     1.95531   1.28551  -0.36252
C     2.43377   2.00998   0.77560
C    -0.45148   1.35655  -0.13290
O    -0.40636   2.58046  -0.24530
C    -1.75912   0.65313   0.03355
C    -2.99541   1.49244   0.10495
C    -1.80536  -0.70077   0.09628
C    -3.09409  -1.44944   0.24212
C    -0.55231  -1.49450   0.02111
O    -0.56250  -2.71678   0.07207
H     3.72258  -2.18799  -0.23950
H     3.33917  -0.69659  -1.16427
H     3.43165  -0.64810   0.63308
H     3.35226   2.52124   0.45812
H     1.69953   2.75570   1.11439
H     2.66717   1.32094   1.60439
H    -3.54614   1.29505   1.03933
H    -2.75424   2.56042   0.05286
H    -3.68208   1.24381  -0.72152
H    -2.92407  -2.53234   0.26159
H    -3.61244  -1.15584   1.16993
H    -3.77856  -1.21283  -0.58901
