46
Generated by autodE on: 2022-06-21. E = -1130.088461 Ha. Imaginary frequency = -194.7 cm-1
C     2.40074   0.97268   3.50855
N     2.16982   0.65887   2.11470
C     1.93163  -0.60141   1.69153
O     1.97312  -1.59004   2.44225
C     1.63192  -0.78800   0.24976
C     1.73812  -2.16130  -0.30540
O     1.63864   0.35155  -0.41831
C     1.27405   0.66135  -1.65446
C     1.52964  -0.21350  -2.83451
C    -0.99658   0.37189  -1.42114
O    -1.38479   0.30081  -2.71759
C    -1.27196   1.39983  -3.62452
C    -1.09475   1.63660  -0.63074
O    -1.33781   2.71619  -1.17170
C    -0.91508   1.55601   0.83952
C    -0.79480   2.88213   1.53484
C    -0.97816   0.35463   1.47889
C    -1.03009   0.18241   2.96345
C    -1.02967  -0.92881   0.71160
O    -1.15631  -2.02174   1.30423
C    -1.01839  -0.84655  -0.72964
O    -1.09215  -2.00329  -1.44987
C    -2.38900  -2.60640  -1.52291
H     2.86251   1.96587   3.58075
H     3.07946   0.23198   3.95440
H     1.46796   0.97680   4.09610
H     1.99013   1.42014   1.46868
H     2.74987  -2.56478  -0.12547
H     1.03137  -2.80989   0.23735
H     1.51038  -2.22044  -1.36964
H     1.33242   1.74425  -1.78114
H     0.81558  -1.04228  -2.93421
H     1.46925   0.40059  -3.74205
H     2.54667  -0.63625  -2.76858
H    -0.33974   1.96206  -3.48173
H    -2.12280   2.08640  -3.51971
H    -1.27970   0.95438  -4.62876
H    -0.33420   2.78336   2.52545
H    -1.77971   3.36308   1.66391
H    -0.18386   3.57071   0.93293
H    -0.86987   1.11738   3.51010
H    -0.29685  -0.56673   3.29490
H    -2.01980  -0.21575   3.24519
H    -3.10697  -1.92505  -2.00709
H    -2.75349  -2.87934  -0.52137
H    -2.28064  -3.51389  -2.13187
