16
Generated by autodE on: 2022-06-16. E = -533.352968 Ha
C     3.06111  -0.11087   0.19576
C     1.86770  -0.86744  -0.30032
O     1.90837  -1.94962  -0.86924
C     0.55829  -0.23572  -0.07083
O     0.34646   0.91437   0.50869
C    -1.09532   1.16928   0.51811
O    -1.53789   2.18882   1.01116
C    -1.60740   0.02489  -0.11744
C    -2.99005  -0.37296  -0.44126
O    -0.56159  -0.78624  -0.45140
H     2.99042   0.02878   1.28701
H     3.97404  -0.66525  -0.05401
H     3.09006   0.89322  -0.25749
H    -3.14379  -0.46441  -1.52971
H    -3.67336   0.39639  -0.05651
H    -3.25247  -1.33862   0.02189
