28
Generated by autodE on: 2022-06-16. E = -690.654884 Ha. Imaginary frequency = -307.0 cm-1
C     2.57475   0.06144   1.94877
C     2.20053   0.26402   0.51138
O     2.92296   0.79666  -0.32188
C     0.84454  -0.15805   0.12802
O     0.15447  -1.05966   0.85208
C    -0.92299  -1.50670   0.05646
O    -1.76688  -2.27117   0.48859
C    -0.71465  -0.85687  -1.19532
C    -1.41905  -1.05002  -2.47695
O     0.50479  -0.26625  -1.16174
C    -1.64533   1.14247   0.06958
C    -2.65404   0.62427   1.04726
C    -0.42723   1.68357   0.44597
C     0.28746   2.67517  -0.43116
H     2.54337  -1.01123   2.19893
H     3.58132   0.46086   2.12418
H     1.84799   0.56812   2.60407
H    -0.94691  -1.84662  -3.07832
H    -1.41996  -0.12395  -3.06995
H    -2.45673  -1.34701  -2.27068
H    -2.01116   1.36782  -0.93741
H    -2.17619   0.26652   1.97210
H    -3.34756   1.43862   1.32614
H    -3.26581  -0.18947   0.63205
H    -0.19826   1.70927   1.51750
H    -0.12532   3.68617  -0.26707
H     0.14875   2.43269  -1.49619
H     1.36559   2.73040  -0.22532
