51
Generated by autodE on: 2022-06-12. E = -4817.757253 Ha
C     0.87983  -4.41089  -1.90746
O     1.15936  -5.12825  -0.69073
C     2.23601  -4.76513  -0.01648
O     2.97471  -3.85527  -0.30823
C     2.44323  -5.60526   1.27231
C     1.50895  -6.75865   1.33051
N     0.79046  -7.66002   1.45816
N     2.32038  -4.72529   2.41121
C     3.36374  -4.98658   3.41447
C     2.67560  -5.84542   4.50354
O     2.09090  -5.39245   5.46272
O     2.65449  -7.12794   4.15960
C     1.87788  -8.02096   4.96943
C     3.92394  -3.65645   3.93052
C     4.13739  -2.63993   2.98703
C     4.70260  -1.42281   3.36479
C     5.06063  -1.19986   4.69860
C     4.84569  -2.20455   5.64425
C     4.28351  -3.42736   5.26439
C     4.38493  -5.81349   2.60664
C     3.88308  -6.12806   1.39614
C     4.39629  -6.95573   0.23988
F     3.41948  -6.90164  -0.74373
Br    5.94548  -6.00855  -0.62285
C     4.67566  -8.45301   0.49656
C     4.60061  -8.94239   1.94379
C     5.87822  -8.71420   2.75196
C     6.52206  -7.33595   2.61549
C     5.75187  -6.14212   3.17302
Cl    5.62263  -6.40468   4.98041
Cl    6.81686  -4.67166   2.91942
H    -0.04280  -4.84606  -2.30637
H     0.74208  -3.34201  -1.69331
H     1.70831  -4.54606  -2.61692
H     1.37856  -4.63820   2.78658
H     0.82631  -7.70204   4.98490
H     2.27564  -8.04427   5.99387
H     1.97128  -9.00679   4.50076
H     3.87027  -2.81802   1.94541
H     4.86788  -0.64638   2.61402
H     5.50315  -0.24694   4.99874
H     5.11716  -2.04128   6.68991
H     4.13215  -4.19482   6.01917
H     5.63471  -8.73568   0.04097
H     3.89175  -8.95682  -0.08620
H     3.72930  -8.50015   2.44531
H     4.40789 -10.02548   1.90791
H     5.69185  -8.93616   3.81358
H     6.64166  -9.43250   2.41148
H     7.48926  -7.33601   3.13680
H     6.75333  -7.11829   1.56522
