31
Generated by autodE on: 2022-06-12. E = -913.418926 Ha
C     5.27674  -0.53513   0.00111
O     3.88973  -0.89002  -0.08892
C     3.00618   0.10465   0.03803
O     3.31101   1.27616   0.22435
C     1.62342  -0.34880  -0.07048
C     1.30314  -1.69163  -0.34229
N     1.08908  -2.81475  -0.57970
N     0.70850   0.64948   0.03219
C    -0.60649   0.72856   0.02031
C    -1.08102   2.13556   0.05131
O    -0.31500   3.08699   0.05418
O    -2.40329   2.23698   0.08923
C    -2.95122   3.56475   0.11241
C    -1.50553  -0.43344   0.03375
C    -1.37489  -1.41316   1.03477
C    -2.23892  -2.50790   1.06146
C    -3.23476  -2.63986   0.08926
C    -3.37283  -1.66619  -0.90658
C    -2.51969  -0.56378  -0.93250
H     5.49664  -0.08457   0.97979
H     5.54612   0.17175  -0.79698
H     5.83432  -1.47100  -0.11875
H     1.17064   1.57291   0.11571
H    -4.03935   3.43848   0.12940
H    -2.64335   4.11941  -0.78540
H    -2.61304   4.10010   1.01099
H    -0.60111  -1.30992   1.79792
H    -2.13271  -3.26119   1.84508
H    -3.90702  -3.50073   0.10862
H    -4.14974  -1.76712  -1.66764
H    -2.62639   0.19707  -1.70720
