31
Generated by autodE on: 2022-07-27. E = -913.408566 Ha
C     0.50410   1.30330  -4.12688
O    -0.42607   0.60402  -3.29146
C     0.04415   0.16662  -2.10734
O     1.17952   0.38535  -1.71495
C    -0.95119  -0.62181  -1.39887
C    -2.07119  -1.13672  -2.08537
N    -3.00166  -1.56642  -2.64680
N    -0.78119  -1.03498  -0.10287
C    -0.07000  -0.57317   0.91534
C    -0.04586  -1.45186   2.11750
O     0.44037  -1.13394   3.18450
O    -0.64025  -2.62905   1.89017
C    -0.76340  -3.52717   3.00442
C     0.54379   0.75499   0.98435
C    -0.16192   1.88141   0.51957
C     0.38929   3.15483   0.64026
C     1.65758   3.32185   1.20838
C     2.36761   2.20708   1.66480
C     1.81384   0.93104   1.56280
H     0.86597   2.21239  -3.62470
H    -0.04783   1.56860  -5.03616
H     1.36096   0.66090  -4.37834
H    -1.30971  -1.88193   0.13908
H    -1.28356  -4.41161   2.62058
H    -1.34608  -3.05728   3.80945
H     0.23277  -3.80074   3.37960
H    -1.14993   1.76100   0.07080
H    -0.17223   4.02230   0.28662
H     2.09161   4.32067   1.29358
H     3.35984   2.33148   2.10408
H     2.37079   0.06409   1.91824
