20
Generated by autodE on: 2022-06-12. E = -3904.266621 Ha
F    -1.62680   0.64746  -2.38149
C    -1.27244   0.52720  -1.06872
Br   -1.60712   2.32635  -0.23292
C     0.12759   0.20341  -0.88292
C     1.06450  -0.33890  -0.33832
C     1.73863  -1.23880   0.56812
Cl    3.24700  -0.49985   1.25881
Cl    2.21350  -2.74722  -0.34498
C     0.75793  -1.59035   1.70290
C    -0.64947  -2.03283   1.25281
C    -1.73639  -0.94083   1.04618
C    -2.12593  -0.54665  -0.39057
H     1.23804  -2.37983   2.29956
H     0.68389  -0.69559   2.34033
H    -1.01208  -2.69646   2.05131
H    -0.57003  -2.66961   0.35683
H    -2.66117  -1.32188   1.50302
H    -1.47961  -0.03613   1.62188
H    -2.05905  -1.42494  -1.05507
H    -3.16812  -0.19559  -0.42286
