30
Generated by autodE on: 2022-10-06. E = -1045.080864 Ha
C    -2.02580  -3.73694  -0.15928
N    -1.64718  -2.34515  -0.29746
C    -1.13281  -1.61324   0.70258
O    -0.95939  -2.02836   1.84761
C    -0.68903  -0.16293   0.33355
C    -1.72104   0.49837  -0.57168
O    -1.92406   0.11515  -1.69802
O    -2.42363   1.45216   0.01545
C    -3.37739   2.13993  -0.80862
O    -0.51986   0.56423   1.53033
C     0.87723   0.72670   1.82382
C     1.62700  -0.21362   0.89186
C     3.08852   0.16836   0.57089
O     3.41099   1.38177   0.66213
O     3.84095  -0.77662   0.22024
C     0.70300  -0.22253  -0.35309
C     0.97536   0.99134  -1.27332
O     0.32402   2.04736  -1.04836
O     1.84934   0.83009  -2.15804
H    -3.01036  -3.91097  -0.61771
H    -2.07867  -3.99118   0.90616
H    -1.29434  -4.40490  -0.64336
H    -1.72754  -1.89844  -1.20838
H    -4.12157   1.43771  -1.21028
H    -2.85996   2.64345  -1.63813
H    -3.86096   2.87817  -0.15876
H     1.03886   0.49279   2.88732
H     1.17393   1.77030   1.63795
H     1.63349  -1.23009   1.31033
H     0.83747  -1.14106  -0.93599
