10
Generated by autodE on: 2022-10-06. E = -455.046583 Ha
O    -2.19949  -0.20975  -0.57906
C    -1.51006  -0.01044   0.45414
O    -1.60801  -0.61802   1.55183
C    -0.53348   1.14960   0.41186
C     0.75089   1.12903   0.01816
C     1.50827  -0.08144  -0.47589
O     0.90350  -1.18868  -0.54264
O     2.71823   0.11287  -0.78735
H    -0.95678   2.10343   0.75648
H     1.33630   2.05531   0.04878
