30
Generated by autodE on: 2022-10-06. E = -1044.981013 Ha. Imaginary frequency = -203.1 cm-1
C    -1.84940  -3.77219  -0.76374
N    -1.94993  -2.40713  -0.29160
C    -1.21404  -1.99471   0.77293
O    -0.69836  -2.79640   1.57377
C    -1.00889  -0.54606   0.91104
C    -1.53839   0.45859   0.02495
O    -2.14942   0.21459  -1.01995
O    -1.31845   1.72164   0.43014
C    -1.63910   2.76511  -0.49510
O    -0.33078  -0.25147   2.05242
C     0.45751   0.74404   2.27988
C     2.10292   0.44293   0.60016
C     2.41896   1.86307   0.13104
O     1.61047   2.79648   0.37755
O     3.54067   1.98132  -0.42356
C     1.46982  -0.51738  -0.13692
C     0.91828  -0.35739  -1.53163
O     0.85100   0.80476  -2.02001
O     0.57000  -1.42142  -2.11624
H    -2.64387  -3.96217  -1.49789
H    -1.96569  -4.47946   0.06829
H    -0.87431  -3.96438  -1.24716
H    -2.16135  -1.67585  -0.97077
H    -2.72201   2.80368  -0.68322
H    -1.10486   2.60684  -1.44154
H    -1.30430   3.69684  -0.02500
H     0.99708   0.65560   3.22616
H     0.37392   1.69017   1.74797
H     2.69881   0.10568   1.45664
H     1.46208  -1.54133   0.24682
