20
Generated by autodE on: 2022-06-28. E = -457.715338 Ha
C    -3.08714   0.66969   0.31862
N    -1.83108  -0.00042   0.02373
C    -1.82435  -1.37980  -0.21999
C    -0.69178  -2.08048  -0.38829
C     0.68091  -1.45680  -0.32816
C     0.57564   0.02893  -0.02564
C     1.77565   0.87078   0.10703
N     2.96715   0.23850  -0.03936
O     1.73376   2.09607   0.34024
C    -0.63269   0.63947   0.13018
H    -3.83852   0.43182  -0.44952
H    -3.48825   0.36735   1.30123
H    -2.92719   1.75530   0.32486
H    -2.81199  -1.84215  -0.26726
H    -0.76832  -3.15267  -0.58304
H     1.29874  -1.97374   0.43429
H     1.22063  -1.62936  -1.28217
H     3.04226  -0.75407  -0.22179
H     3.81894   0.78132   0.05101
H    -0.67781   1.70730   0.34983
