33
Generated by autodE on: 2022-06-28. E = -820.210129 Ha
C    -1.79793   1.77031  -1.09316
N    -0.52715   1.26843  -0.54049
C    -0.37686   0.01074  -0.14699
C     0.96310  -0.58526   0.01862
C     1.95033  -0.42438  -0.97331
C     3.18334  -1.05674  -0.84035
C     3.45824  -1.83845   0.28935
C     2.48553  -1.99788   1.27951
C     1.23928  -1.38465   1.14103
C    -1.54485  -0.83360   0.15812
C    -1.56795  -2.16975  -0.28673
C    -2.64963  -2.99383   0.01941
C    -3.70717  -2.50582   0.79480
C    -3.68048  -1.18722   1.26134
C    -2.61020  -0.35226   0.94353
C     0.50098   2.23696  -0.43164
C     1.43475   2.17283   0.61201
N     2.21656   2.14284   1.48429
C     0.60187   3.27192  -1.37311
N     0.70650   4.15182  -2.14093
H    -2.43929   0.93442  -1.38231
H    -1.56401   2.36476  -1.98593
H    -2.30176   2.41312  -0.36000
H     1.74364   0.18711  -1.85310
H     3.93684  -0.94076  -1.62243
H     4.43108  -2.32408   0.39396
H     2.69479  -2.60533   2.16266
H     0.47675  -1.51354   1.91089
H    -0.74048  -2.55232  -0.88643
H    -2.66598  -4.02321  -0.34490
H    -4.54955  -3.15585   1.04193
H    -4.49543  -0.80816   1.88176
H    -2.58725   0.66920   1.32541
