26
Generated by autodE on: 2022-10-06. E = -984.610496 Ha
C     3.37608   1.64133  -0.61321
O     2.46875   0.64287  -0.12104
C     1.28062   0.57684  -0.71829
O     0.97662   1.21928  -1.69874
C     0.37862  -0.48812  -0.08609
C     0.74961  -1.80294  -0.81101
C     1.48041  -2.85558  -0.03313
O     0.59613  -1.85214  -2.02038
N     0.63632  -0.54477   1.38956
N    -0.26185   0.02635   2.02360
C    -1.27607   0.63246   1.14602
C    -0.98985   2.15985   0.98266
O     0.21468   2.51345   1.01467
O    -1.99173   2.87888   0.77345
C    -1.10181  -0.11450  -0.19094
C    -2.03641  -1.34473  -0.22644
O    -3.25891  -1.10770  -0.36766
O    -1.50387  -2.47852  -0.08212
H     4.28269   1.55162  -0.00411
H     2.93130   2.63958  -0.49234
H     3.60819   1.46507  -1.67312
H     2.48448  -2.46678   0.20760
H     1.57875  -3.76225  -0.64483
H     0.97590  -3.07532   0.91521
H    -2.27262   0.50444   1.58285
H    -1.31375   0.53082  -1.05052
