16
Generated by autodE on: 2022-10-06. E = -529.530918 Ha
C     3.23244   0.27617   0.26687
O     1.93270  -0.31084   0.10448
C     0.88631   0.52652   0.12578
O     0.98292   1.72969   0.27289
C    -0.38218  -0.19195  -0.04979
N    -0.31542  -1.50791  -0.20058
N    -0.32165  -2.62346  -0.33263
C    -1.75396   0.35490  -0.08513
C    -1.92220   1.83836   0.08092
O    -2.70634  -0.40124  -0.24581
H     3.94406  -0.55621   0.22340
H     3.30499   0.78820   1.23712
H     3.43489   0.99217  -0.54259
H    -2.99306   2.07398   0.03054
H    -1.37544   2.37919  -0.70585
H    -1.50421   2.16830   1.04369
