10
Generated by autodE on: 2022-10-06. E = -455.051696 Ha
O    -2.25057  -1.20943  -0.03442
C    -1.97195   0.02026  -0.08284
O    -2.80748   0.96483  -0.15111
C    -0.51307   0.42790  -0.05235
C     0.51306  -0.42790   0.05231
C     1.97194  -0.02026   0.08284
O     2.25060   1.20942   0.03428
O     2.80747  -0.96482   0.15128
H    -0.30745   1.50190  -0.11612
H     0.30745  -1.50190   0.11608
