26
Generated by autodE on: 2022-10-06. E = -984.553674 Ha. Imaginary frequency = -482.9 cm-1
C     2.68459   2.43865  -0.74860
O     2.18670   1.23649  -0.14444
C     1.51128   0.40081  -0.93842
O     1.40143   0.54104  -2.13932
C     0.86639  -0.69261  -0.16923
C     0.75165  -2.06072  -0.73471
C     0.55448  -3.18080   0.24949
O     0.76258  -2.23861  -1.94414
N     0.98126  -0.57699   1.19266
N     0.34672  -0.10401   2.04766
C    -1.30614   0.63949   1.14914
C    -1.00092   2.10766   1.42685
O    -0.40430   2.76172   0.52871
O    -1.36543   2.54441   2.54867
C    -1.27681   0.12494  -0.14858
C    -2.06525  -1.11650  -0.52385
O    -2.24032  -1.31379  -1.75481
O    -2.48118  -1.85424   0.41375
H     3.17721   2.99551   0.05646
H     1.85166   3.02506  -1.16057
H     3.40481   2.20200  -1.54450
H     1.40869  -3.24792   0.94100
H     0.43843  -4.12589  -0.29569
H    -0.35127  -2.98062   0.84301
H    -1.95454   0.14025   1.87268
H    -1.02296   0.79150  -0.97328
