44
Generated by autodE on: 2022-10-21. E = -1518.875687 Ha
C    -2.80590   4.06816   0.56168
O    -1.59739   3.29651   0.40131
C    -1.74140   2.04730   0.02140
O    -2.78873   1.48835  -0.21804
C    -0.41203   1.32422  -0.15070
N     0.01566   1.17303  -1.53565
C     1.32257   0.59694  -1.18965
C     2.23123   0.39125  -2.30144
N     2.98611   0.29159  -3.17456
C     1.79730   1.69767  -0.21522
O     2.88091   2.15622  -0.01747
O     0.66768   2.06698   0.43203
C     1.02199  -0.62423  -0.17996
O     1.95932  -0.67056   0.85079
C     3.26860  -1.14908   0.52842
C     0.87226  -2.01258  -0.83766
O     0.67276  -2.99808  -0.16621
O     0.99266  -1.98328  -2.14857
C     0.79789  -3.22042  -2.85949
C    -0.35441  -0.13191   0.43940
C    -1.55679  -0.92328  -0.11452
O    -1.67811  -1.18478  -1.29322
O    -2.41464  -1.25532   0.82668
C    -3.62818  -1.90980   0.40662
C    -0.40807  -0.12035   1.96781
O    -0.73462   0.86519   2.59288
O    -0.13153  -1.29790   2.49381
C    -0.23329  -1.41044   3.92436
H    -2.48128   5.06469   0.87883
H    -3.34571   4.12112  -0.39369
H    -3.44378   3.60583   1.32747
H    -0.57411   0.48391  -2.01614
H     3.83440  -1.13010   1.46782
H     3.77028  -0.49970  -0.20520
H     3.23385  -2.18210   0.14873
H     0.96714  -2.98583  -3.91569
H    -0.22956  -3.57600  -2.70013
H     1.51641  -3.97332  -2.50863
H    -4.18938  -2.11003   1.32528
H    -4.19360  -1.24144  -0.25724
H    -3.38827  -2.84639  -0.11442
H     0.03997  -2.44418   4.16197
H     0.45850  -0.70788   4.40945
H    -1.26335  -1.20045   4.24532
