28
Generated by autodE on: 2022-10-21. E = -877.150880 Ha
C     3.45110  -0.38974   1.99810
O     2.39341   0.20416   1.22173
C     1.86268  -0.55124   0.27357
O     2.24659  -1.64902  -0.05986
C     0.76220   0.18190  -0.47579
O     1.12391   0.87757  -1.54358
C     2.50250   0.91754  -1.95906
C    -0.54563   0.11119  -0.08824
C    -0.88507  -0.65085   1.12620
O    -0.06470  -1.19999   1.84691
O    -2.20082  -0.72158   1.34773
C    -2.62157  -1.46856   2.49747
C    -1.61414   0.84091  -0.82995
O    -2.44474   1.55547  -0.30475
O    -1.56203   0.62538  -2.14767
C    -2.50407   1.34705  -2.95510
H     4.28211  -0.68881   1.34449
H     3.06561  -1.26616   2.53810
H     3.77520   0.38320   2.70322
H     2.53247   1.60360  -2.81264
H     3.13668   1.30190  -1.14807
H     2.83468  -0.08296  -2.26767
H    -2.30568  -2.51828   2.41133
H    -2.19933  -1.03433   3.41508
H    -3.71539  -1.40134   2.51473
H    -3.53338   1.06356  -2.69195
H    -2.28737   1.06804  -3.99264
H    -2.37755   2.43065  -2.81739
