44
Generated by autodE on: 2022-10-21. E = -1518.843142 Ha. Imaginary frequency = -375.6 cm-1
C    -3.03499   2.97345   1.64649
O    -1.80569   2.33006   1.26464
C    -1.51734   2.28465  -0.02203
O    -2.12954   2.81504  -0.91640
C    -0.25227   1.48097  -0.23862
N     0.17496   1.25670  -1.52124
C     1.50066   0.89954  -1.41172
C     2.28881   0.39334  -2.46204
N     2.94588  -0.05955  -3.31065
C     1.99344   1.45791  -0.16983
O     3.08974   1.55230   0.32347
O     0.84252   1.91356   0.47902
C     0.72935  -1.02674   0.14117
O     1.65482  -1.18781   1.07523
C     3.01154  -1.59261   0.81609
C     0.70498  -1.78221  -1.15116
O    -0.12973  -1.55006  -2.01198
O     1.64566  -2.70482  -1.25910
C     1.69466  -3.44250  -2.49584
C    -0.48218  -0.32742   0.50054
C    -1.76496  -0.82316  -0.16682
O    -2.54957  -0.10492  -0.74678
O    -1.95025  -2.11916   0.04569
C    -3.12464  -2.70532  -0.54023
C    -0.79096  -0.12515   1.97351
O    -1.88287  -0.40326   2.43066
O     0.19736   0.39333   2.67831
C    -0.08238   0.69696   4.05523
H    -3.01245   4.03310   1.35773
H    -3.88077   2.46806   1.16005
H    -3.09850   2.87003   2.73482
H    -0.45135   0.87132  -2.22887
H     3.58954  -1.21199   1.66624
H     3.37916  -1.15297  -0.11941
H     3.07654  -2.68648   0.77047
H     0.75365  -3.98955  -2.64526
H     1.86765  -2.75624  -3.33515
H     2.53261  -4.13980  -2.39025
H    -4.02941  -2.22689  -0.13999
H    -3.09885  -3.76579  -0.26648
H    -3.09402  -2.58983  -1.63308
H     0.84645   1.11086   4.46279
H    -0.89314   1.43687   4.11865
H    -0.36830  -0.21447   4.59832
