47
Generated by autodE on: 2022-06-03. E = -1269.049930 Ha
C    -4.49799   0.27284  -1.00613
N    -3.36697   0.12719  -0.10955
C    -2.41001  -0.78161  -0.34324
O    -2.49601  -1.66105  -1.20643
C    -1.15940  -0.65280   0.53939
C    -0.38892  -1.98010   0.62775
C    -0.88964  -2.78077   1.75324
N    -1.30932  -3.42372   2.62268
N     1.03742  -1.63888   0.72375
C     1.84665  -2.37401   1.69083
C     1.23449  -0.20136   0.62513
C     1.44914   0.39236   1.97050
N     1.61197   0.75668   3.05965
C     2.47771   0.18398  -0.24195
O     2.77767   1.37740  -0.37483
N     3.16415  -0.82566  -0.76220
C     4.23369  -0.61365  -1.71879
C    -0.10863   0.37673   0.01910
C    -0.10549   0.31293  -1.52773
O     0.58195  -0.50983  -2.12962
N    -0.96727   1.13629  -2.14564
C    -1.29492   0.95641  -3.54964
C    -0.45530   1.80188   0.53295
O    -1.57643   2.04564   1.00124
N     0.49495   2.72683   0.40930
C     0.29519   4.07789   0.89727
H    -4.18552   0.66618  -1.98908
H    -4.98670  -0.69802  -1.16641
H    -5.22210   0.96629  -0.56086
H    -3.08848   0.91686   0.47689
H    -1.45372  -0.32404   1.54350
H    -0.58286  -2.57075  -0.28226
H     1.52851  -2.20823   2.73614
H     2.89713  -2.07106   1.59923
H     1.78509  -3.44893   1.47124
H     2.71051  -1.73487  -0.71660
H     4.87682   0.21119  -1.38507
H     3.82750  -0.36251  -2.71299
H     4.83292  -1.52913  -1.79787
H    -1.58142   1.72625  -1.59283
H    -1.96897   1.76330  -3.86039
H    -1.79191  -0.01373  -3.71270
H    -0.38606   0.99032  -4.16685
H     1.42374   2.43026   0.07780
H     0.15818   4.08932   1.99087
H     1.17686   4.67842   0.64270
H    -0.59470   4.53293   0.43691
