20
Generated by autodE on: 2022-06-03. E = -566.002810 Ha
C     3.86145   0.05547  -0.02132
N     2.54332   0.41457  -0.50428
C     1.42948  -0.05513   0.10095
O     1.50697  -0.80615   1.08988
C     0.14036   0.37275  -0.48039
C     0.14087   1.23164  -1.59924
N     0.20436   1.94370  -2.52429
N    -1.07458  -0.02732   0.01634
C    -2.26984   0.48516  -0.69515
C    -1.24004  -0.82516   1.06714
C    -2.50959  -1.20726   1.53706
N    -3.52179  -1.57155   1.99258
H     4.01163   0.38394   1.01955
H     4.61203   0.54145  -0.65612
H     4.01995  -1.03436  -0.05670
H     2.46996   1.02030  -1.31428
H    -2.22951   0.15449  -1.73980
H    -3.17417   0.09733  -0.21984
H    -2.26786   1.58070  -0.64855
H    -0.34219  -1.18516   1.56892
