43
Generated by autodE on: 2022-06-21. E = -1141.966989 Ha
C    -2.88748   2.76646   0.26291
N    -2.13029   1.71616  -0.40602
C    -2.67723   0.46268  -0.46796
C    -2.07337  -0.59592  -1.07085
C    -2.72214  -1.91237  -0.97802
N    -2.09324  -2.95172  -1.58137
O    -3.79836  -2.09052  -0.37460
C    -0.78893  -0.32665  -1.80922
C     0.08340   0.69114  -1.07916
C    -0.68707   1.86406  -0.41352
C    -0.04703   1.80506   1.02197
C    -0.19074   2.98563   1.86787
N    -0.29500   3.93910   2.51662
O    -0.66898   0.65940   1.69945
C    -0.06922  -0.43797   1.14686
O    -0.35464  -1.55543   1.48125
C     0.93773   0.12114   0.11127
C     2.05795  -0.77453  -0.33789
C     3.26894  -0.20708  -0.76573
C     4.29309  -1.01418  -1.26410
C     4.11736  -2.39874  -1.35434
C     2.90810  -2.96759  -0.94813
C     1.88153  -2.16298  -0.44410
N     1.31401   1.40209   0.76688
C     2.16666   1.29213   1.95591
H    -2.88082   2.65450   1.36123
H    -2.46053   3.74640   0.00812
H    -3.93053   2.74507  -0.07937
H    -3.66215   0.34838  -0.01028
H    -1.21009  -2.85269  -2.06477
H    -2.50609  -3.87485  -1.50733
H    -1.01412   0.07990  -2.81070
H    -0.19139  -1.23279  -1.97719
H     0.82169   1.10574  -1.77433
H    -0.41948   2.82928  -0.86074
H     3.41016   0.87286  -0.71248
H     5.23134  -0.55745  -1.58711
H     4.91861  -3.03009  -1.74521
H     2.75620  -4.04672  -1.02385
H     0.94087  -2.61691  -0.13785
H     1.76317   0.61433   2.72877
H     3.15476   0.92715   1.65447
H     2.29508   2.28983   2.39677
