20
Generated by autodE on: 2022-06-21. E = -457.715321 Ha
C    -3.12819   0.54051   0.11007
N    -1.82531  -0.10441   0.09676
C    -1.74458  -1.49430  -0.05510
C    -0.57575  -2.14430  -0.17043
C     0.76174  -1.44623  -0.15093
C     0.57429   0.05603  -0.01087
C     1.72573   0.97245   0.02176
N     2.94955   0.39843  -0.09490
O     1.61709   2.20919   0.14870
C    -0.66581   0.61146   0.09562
H    -3.00582   1.60039   0.36617
H    -3.62464   0.47109  -0.87284
H    -3.78257   0.07276   0.86163
H    -2.70565  -2.01153  -0.06897
H    -0.59443  -3.23116  -0.27881
H     1.33132  -1.69066  -1.07101
H     1.38776  -1.84508   0.67389
H     3.08010  -0.59909  -0.20325
H     3.76886   0.99584  -0.08011
H    -0.77174   1.69320   0.19218
