23
Generated by autodE on: 2022-06-21. E = -684.220579 Ha
C     1.23326   0.30056  -1.98999
N     1.17906  -0.03156  -0.56599
C     2.26657  -0.32059   0.15825
C     3.59293  -0.39122  -0.28552
N     4.70069  -0.45241  -0.64950
O     1.92319  -0.53175   1.43695
C     0.52308  -0.36142   1.56121
O    -0.01669  -0.49366   2.64582
C     0.06760  -0.05331   0.24015
C    -1.31668   0.18422  -0.15544
C    -1.82590  -0.17176  -1.42184
C    -3.16454   0.06215  -1.73857
C    -4.02563   0.64094  -0.80162
C    -3.53583   0.98264   0.46342
C    -2.19839   0.75912   0.78593
H     2.25178   0.62236  -2.23554
H     0.53150   1.11732  -2.19113
H     0.97057  -0.57905  -2.59057
H    -1.18830  -0.65936  -2.15778
H    -3.53883  -0.22287  -2.72453
H    -5.07359   0.81875  -1.05328
H    -4.19978   1.43281   1.20510
H    -1.82426   1.03325   1.77238
