43
Generated by autodE on: 2022-06-21. E = -1141.919414 Ha. Imaginary frequency = -427.5 cm-1
C    -2.63887   2.94557   0.42191
N    -1.95411   1.94008  -0.37659
C    -2.63993   0.82485  -0.77045
C    -2.09033  -0.22267  -1.44060
C    -2.96887  -1.35072  -1.78500
N    -2.41373  -2.34434  -2.52300
O    -4.16408  -1.41732  -1.43382
C    -0.62937  -0.19338  -1.82878
C     0.12749   0.85662  -1.04529
C    -0.54372   1.93239  -0.39879
C     0.05715   1.49265   1.58921
C    -0.13885   2.60210   2.46203
N    -0.31287   3.55893   3.10122
O    -0.78649   0.40363   1.75926
C    -0.19809  -0.66073   1.09432
O    -0.77569  -1.71737   0.96171
C     1.09927  -0.16682   0.62221
C     2.15330  -1.04389   0.07590
C     3.18746  -0.53397  -0.73333
C     4.16506  -1.38230  -1.25321
C     4.12649  -2.75380  -0.98319
C     3.09940  -3.27205  -0.19001
C     2.11969  -2.42751   0.33490
N     1.32882   0.99173   1.35565
C     2.45707   1.88922   1.18137
H    -2.74969   2.62956   1.47291
H    -2.07116   3.88532   0.39693
H    -3.63940   3.13002   0.00772
H    -3.70314   0.81616  -0.52507
H    -1.45432  -2.32098  -2.84353
H    -2.98869  -3.14153  -2.77219
H    -0.15966  -1.18128  -1.67584
H    -0.51596   0.01329  -2.91200
H     1.11529   1.10381  -1.43398
H    -0.09169   2.92630  -0.41957
H     3.22581   0.52681  -0.97753
H     4.95805  -0.96825  -1.87993
H     4.89175  -3.41616  -1.39436
H     3.05873  -4.34220   0.02529
H     1.32236  -2.84205   0.95011
H     2.43770   2.37341   0.19162
H     3.39193   1.32881   1.29550
H     2.41545   2.66037   1.96104
