57
Generated by autodE on: 2022-06-22. E = -1026.553253 Ha
C     2.41703  -3.50736  -0.26526
C     3.16259  -2.22920  -0.53025
C     4.44587  -2.39520  -1.29593
C     2.74444  -1.00416  -0.13049
C     1.52013  -0.69530   0.59102
C     1.15179   0.55466   0.93000
C    -0.10159   0.98195   1.65655
C     0.30564   1.74152   2.92564
C    -1.07458  -0.16852   1.95630
C    -1.97978  -0.34103   0.70032
C    -3.45112  -0.43513   1.15570
C    -1.62400  -1.59806  -0.10786
C    -1.11717  -1.51882  -1.41168
C    -0.78903  -2.67368  -2.12953
C    -0.96028  -3.93531  -1.55421
C    -1.45942  -4.02884  -0.25064
C    -1.78944  -2.87236   0.46093
N    -1.70232   0.87994  -0.08614
C    -2.76256   1.39420  -0.92276
C    -1.01752   1.86124   0.73690
C    -0.28803   2.92051  -0.05813
C    -0.14683   4.21271   0.46655
C     0.58139   5.19044  -0.21929
C     1.17186   4.88901  -1.45005
C     1.02803   3.60462  -1.98764
C     0.30623   2.62909  -1.29613
H     2.15560  -4.00425  -1.21569
H     1.49135  -3.36897   0.30655
H     3.06005  -4.21669   0.28553
H     5.14026  -3.06673  -0.75942
H     4.25890  -2.87021  -2.27595
H     4.95465  -1.43506  -1.46763
H     3.37592  -0.14386  -0.38447
H     0.86639  -1.53197   0.84111
H     1.83015   1.37513   0.66933
H    -0.57926   2.13319   3.45190
H     0.85157   1.07608   3.61264
H     0.96484   2.59061   2.68560
H    -1.70514   0.13015   2.80586
H    -0.56899  -1.09871   2.24394
H    -3.57780  -1.26028   1.87135
H    -3.75308   0.49499   1.66123
H    -4.13299  -0.61317   0.31172
H    -0.96135  -0.53475  -1.85312
H    -0.39072  -2.58413  -3.14351
H    -0.69931  -4.83802  -2.11169
H    -1.59000  -5.00796   0.21724
H    -2.17078  -2.96645   1.48025
H    -3.58329   1.88368  -0.35697
H    -2.36076   2.13953  -1.62611
H    -3.20285   0.58397  -1.52241
H    -1.72534   2.39024   1.41334
H    -0.61709   4.45429   1.42334
H     0.68185   6.19204   0.20628
H     1.73652   5.65214  -1.99130
H     1.48239   3.36183  -2.95163
H     0.19685   1.62614  -1.71127
