34
Generated by autodE on: 2022-07-27. E = -674.955880 Ha
C    -1.70586  -0.05477   1.94555
C    -0.96792  -0.68929   0.81280
C    -1.09925  -2.12844   0.58157
C    -0.00832  -2.97442   0.26150
C    -0.18019  -4.34905   0.10027
C    -1.43975  -4.93577   0.26415
C    -2.52793  -4.12242   0.60187
C    -2.36191  -2.74774   0.76034
N    -0.17504   0.11704   0.06362
C     0.41355  -0.40482  -1.18668
C    -0.02715   1.45049   0.32744
C     0.86552   2.40548  -0.27103
C     0.56560   3.78076  -0.03161
C     1.36776   4.80766  -0.51374
C     2.51876   4.52438  -1.26454
C     2.84777   3.18510  -1.49824
C     2.05303   2.14546  -1.01363
H    -1.00296   0.45108   2.63594
H    -2.26303  -0.80203   2.52132
H    -2.41430   0.72624   1.60738
H     0.99500  -2.55777   0.17473
H     0.68594  -4.97110  -0.13988
H    -1.57013  -6.01307   0.13893
H    -3.51968  -4.56227   0.73496
H    -3.22924  -2.13197   1.00631
H     1.44135  -0.75249  -1.03425
H     0.40674   0.39460  -1.93357
H    -0.19556  -1.23436  -1.55410
H    -0.68909   1.84334   1.09183
H    -0.32966   4.02514   0.54667
H     1.09129   5.84522  -0.30687
H     3.14859   5.33004  -1.64803
H     3.75248   2.93750  -2.06055
H     2.38642   1.12516  -1.18771
