34
Generated by autodE on: 2022-06-22. E = -674.959020 Ha
C    -0.51904  -1.77811   0.19384
C    -0.81321  -0.47895  -0.46905
C    -2.00981   0.28815  -0.13081
C    -1.99791   1.70502  -0.11120
C    -3.13929   2.43500   0.21728
C    -4.32926   1.78095   0.55475
C    -4.35568   0.38078   0.56449
C    -3.21869  -0.35360   0.23353
N     0.08261  -0.00232  -1.37521
C    -0.36510   0.83103  -2.50812
C     1.40068  -0.35101  -1.40701
C     2.26177  -0.56725  -0.28311
C     1.95186  -0.21766   1.06150
C     2.89464  -0.36783   2.08023
C     4.16495  -0.89084   1.81865
C     4.49101  -1.24420   0.49875
C     3.56699  -1.08483  -0.52630
H    -1.44848  -2.28511   0.48480
H     0.09436  -1.68261   1.11309
H     0.05899  -2.42670  -0.48697
H    -1.07212   2.23894  -0.32895
H    -3.09331   3.52704   0.22611
H    -5.22176   2.35368   0.81678
H    -5.27609  -0.14656   0.82794
H    -3.27486  -1.44324   0.23415
H     0.09463   0.42428  -3.41990
H    -0.03599   1.87151  -2.38805
H    -1.45393   0.78706  -2.60911
H     1.85012  -0.34676  -2.40140
H     0.98498   0.22772   1.29800
H     2.62666  -0.07153   3.09818
H     4.89034  -1.02113   2.62480
H     5.48097  -1.64919   0.27142
H     3.83909  -1.35785  -1.54958
