57
Generated by autodE on: 2022-06-22. E = -1026.480290 Ha. Imaginary frequency = -266.9 cm-1
C     3.83334   4.31094   0.88207
C     3.94333   3.08599   0.01619
C     4.98632   3.16454  -1.06434
C     3.16445   1.98086   0.16019
C     2.09461   1.76956   1.10511
C     1.26084   0.68384   1.07318
C     0.13855   0.44626   1.93765
C    -0.13938   1.43845   3.04056
C    -0.58855  -0.74839   1.84501
C    -2.35634  -0.47526   0.63469
C    -3.21030   0.26120   1.64652
C    -2.81259  -1.85996   0.30699
C    -1.93170  -2.84050  -0.20063
C    -2.36015  -4.14386  -0.45230
C    -3.68438  -4.51602  -0.19895
C    -4.57191  -3.56365   0.30870
C    -4.14173  -2.25874   0.56078
N    -1.82116   0.30838  -0.39107
C    -1.52395  -0.27043  -1.70155
C    -1.38271   1.55768  -0.10042
C    -0.52420   2.45242  -0.82628
C    -0.33713   3.72623  -0.21694
C     0.55024   4.66873  -0.72645
C     1.29841   4.38913  -1.87642
C     1.14094   3.14228  -2.49179
C     0.26564   2.18666  -1.98031
H     3.69158   5.21356   0.26160
H     4.76668   4.47544   1.45214
H     3.00352   4.26369   1.59970
H     4.78438   4.00843  -1.74981
H     5.99198   3.35003  -0.64254
H     5.03131   2.24219  -1.66326
H     3.32842   1.16242  -0.55302
H     1.91601   2.54465   1.85460
H     1.44077  -0.07444   0.29980
H    -0.98880   1.12394   3.66295
H     0.73796   1.55019   3.70351
H    -0.35729   2.44802   2.65074
H    -1.16856  -1.08287   2.70911
H    -0.16600  -1.55108   1.23798
H    -2.67085   1.06007   2.16498
H    -3.56054  -0.43493   2.41829
H    -4.09430   0.71581   1.16299
H    -0.89069  -2.58522  -0.39730
H    -1.64971  -4.87645  -0.84324
H    -4.01892  -5.53789  -0.39253
H    -5.61169  -3.83423   0.50878
H    -4.86190  -1.53754   0.94757
H    -1.65158   0.50479  -2.46367
H    -0.49979  -0.66810  -1.75133
H    -2.22942  -1.07557  -1.91933
H    -1.80152   1.98085   0.80381
H    -0.90865   3.96316   0.68371
H     0.66451   5.62910  -0.21765
H     1.99782   5.12472  -2.27932
H     1.73139   2.89568  -3.37797
H     0.22812   1.22290  -2.47761
