11
Generated by autodE on: 2022-05-31. E = -376.770394 Ha
C    -2.39883   0.26206   0.12600
N    -1.56051  -0.45519  -0.81576
C    -0.22289  -0.55170  -0.80037
O     0.45169  -1.18400  -1.61219
C     0.45391   0.17314   0.28746
N     1.26174   0.61967   1.00386
O     2.05883   1.10242   1.76592
H    -1.77244   0.81395   0.83903
H    -3.04041   0.98282  -0.40213
H    -3.03942  -0.43292   0.69031
H    -2.01452  -0.96646  -1.57076
