37
Generated by autodE on: 2022-05-31. E = -771.515562 Ha
C    -1.01609   3.04395  -2.78912
O    -0.92241   1.83825  -2.01277
C     0.30315   1.38996  -1.73756
O     1.32113   1.94005  -2.09108
C     0.23423   0.08271  -0.93651
C    -0.41037  -0.95847  -1.90284
C    -1.57406  -1.76214  -1.42157
O     0.07565  -1.08098  -3.01131
C    -0.48846   0.25379   0.32209
C    -0.71492   0.08815   1.50236
C    -0.56569  -0.35959   2.89167
C    -1.87875  -0.91331   3.46651
C    -0.05650   0.79595   3.77276
C     0.49708  -1.50272   2.80379
C     1.76753  -1.23216   1.96960
C     1.74639  -1.56670   0.45007
C     1.66750  -0.40441  -0.56051
H    -2.08705   3.24405  -2.90667
H    -0.52771   3.87598  -2.26234
H    -0.54360   2.90140  -3.77153
H    -1.88475  -2.47669  -2.19420
H    -2.40479  -1.08267  -1.17138
H    -1.30817  -2.28687  -0.49076
H    -1.70300  -1.32827   4.47148
H    -2.63701  -0.11948   3.55033
H    -2.28383  -1.71360   2.82851
H     0.90282   1.18970   3.40565
H    -0.78179   1.62380   3.78885
H     0.08575   0.44072   4.80552
H    -0.00200  -2.40316   2.40817
H     0.78890  -1.73862   3.84110
H     2.56116  -1.85054   2.41756
H     2.09942  -0.19010   2.11352
H     0.95579  -2.30701   0.24174
H     2.69147  -2.08431   0.22385
H     2.21472   0.46559  -0.16818
H     2.16021  -0.69102  -1.50152
