48
Generated by autodE on: 2022-05-31. E = -1148.281635 Ha. Imaginary frequency = -350.6 cm-1
C    -1.03756   4.69004   1.89246
N    -0.37871   3.91134   0.85915
C    -0.38226   2.56923   0.89955
O    -0.94384   1.91616   1.78320
C     0.33528   1.90729  -0.20458
N     1.09807   2.13064  -1.11033
O     1.74924   1.65957  -2.01709
C     0.98425  -0.65740  -1.37847
C     0.13011  -0.35152  -0.54424
C    -0.94937  -0.78835   0.36863
C    -2.22674   0.07780   0.16543
C    -3.36795  -0.03065   1.13487
O    -2.30819   0.76905  -0.83303
C    -0.49277  -0.80671   1.83180
O    -1.20368  -1.15314   2.75206
O     0.78391  -0.46322   1.98261
C     1.27682  -0.39475   3.32791
C    -1.37949  -2.24787  -0.02093
C    -0.24738  -3.28187  -0.14504
C     0.37355  -3.50704  -1.54629
C     1.76405  -2.91172  -1.81204
C     1.84910  -1.42706  -2.28432
C     3.32118  -0.98546  -2.20267
C     1.34148  -1.28157  -3.73087
H    -0.58728   4.50174   2.87959
H    -2.10786   4.43955   1.95063
H    -0.93159   5.75345   1.64863
H     0.10513   4.38711   0.10386
H    -3.62050  -1.07758   1.35142
H    -3.08390   0.43867   2.08688
H    -4.23649   0.49084   0.71212
H     0.72594   0.37342   3.88977
H     2.33478  -0.12041   3.24682
H     1.17115  -1.36707   3.82930
H    -2.09175  -2.58057   0.74620
H    -1.93176  -2.18719  -0.97150
H    -0.68463  -4.24007   0.17532
H     0.54729  -3.06424   0.58881
H     0.47374  -4.59507  -1.68445
H    -0.33704  -3.18047  -2.32431
H     2.37281  -3.01496  -0.89831
H     2.26919  -3.50719  -2.59062
H     3.67872  -0.99747  -1.16165
H     3.94535  -1.67797  -2.78893
H     3.45406   0.02860  -2.60214
H     1.36437  -0.22671  -4.04243
H     1.98357  -1.86156  -4.41221
H     0.30822  -1.64514  -3.83304
