42
Generated by autodE on: 2022-05-29. E = -975.294613 Ha
C    -1.04387  -1.98514  -1.87710
N    -0.10089  -1.22952  -1.05213
N    -0.49972   0.14399  -0.99558
N    -1.35923   0.29944   0.14107
C    -2.69818   0.62976  -0.10526
C    -3.62753   0.63737   0.95670
C    -4.95801   0.99501   0.73093
C    -5.39633   1.36570  -0.54431
C    -4.47203   1.37736  -1.59484
C    -3.13988   1.01859  -1.38592
C    -1.01488  -0.72237   1.12488
C    -0.06215  -0.29738   2.29162
C     1.00451   0.61082   1.71538
C     1.81826  -0.18829   0.99106
C     2.94704   0.15549   0.12263
C     3.59178  -0.83014  -0.64936
C     4.66014  -0.49860  -1.48619
C     5.10783   0.82231  -1.56807
C     4.47543   1.81330  -0.80613
C     3.40802   1.48559   0.02688
C     1.22716  -1.58913   1.16165
O     0.66715  -1.52491   2.48435
C    -0.09266  -1.70154   0.33413
H    -0.70628  -3.02909  -1.94384
H    -2.07508  -1.98028  -1.47520
H    -1.06053  -1.56071  -2.88976
H     0.34297   0.67392  -0.78118
H    -3.30457   0.38105   1.96674
H    -5.65768   0.98961   1.57084
H    -6.43755   1.64751  -0.71499
H    -4.79056   1.66836  -2.59947
H    -2.42590   1.03046  -2.20755
H    -1.91254  -1.21052   1.51979
H    -0.56245   0.02106   3.21270
H     1.01758   1.69683   1.79629
H     3.25181  -1.86582  -0.60513
H     5.14412  -1.27910  -2.07804
H     5.94392   1.08132  -2.22178
H     4.81779   2.84930  -0.86403
H     2.92482   2.26868   0.61444
H     1.90839  -2.44036   1.06576
H    -0.44417  -2.73787   0.38367
