19
Generated by autodE on: 2022-05-29. E = -436.549720 Ha
C     3.69175  -0.30432   0.11182
N     2.95637   0.89746   0.41711
N     1.69209   0.74143   0.34906
N     1.04980  -0.35134   0.08928
C    -0.33580  -0.21761  -0.04532
C    -0.99254   0.96600  -0.44756
C    -2.38453   0.99606  -0.55659
C    -3.14735  -0.14570  -0.29219
C    -2.49969  -1.33073   0.07921
C    -1.11203  -1.36915   0.19889
H     3.46294  -1.11603   0.82664
H     3.43659  -0.69767  -0.88923
H     4.76406  -0.07872   0.15446
H     1.15957   1.60355   0.55434
H    -0.42234   1.86032  -0.70998
H    -2.87501   1.92087  -0.87055
H    -4.23499  -0.11660  -0.38697
H    -3.08234  -2.23315   0.28032
H    -0.60041  -2.28748   0.49436
