42
Generated by autodE on: 2022-05-29. E = -975.208479 Ha. Imaginary frequency = -412.2 cm-1
C    -0.50127  -3.01858  -1.92166
N     0.23334  -1.87746  -1.38563
N    -0.48209  -0.78548  -1.29827
N    -1.69141  -0.82964  -0.76582
C    -2.28653   0.41674  -0.54577
C    -3.33893   0.48049   0.39173
C    -3.95788   1.69360   0.67888
C    -3.55690   2.87076   0.03119
C    -2.53280   2.81054  -0.91709
C    -1.90097   1.59923  -1.21203
C    -1.08545  -1.90542   1.07896
C    -0.68860  -0.88216   2.17635
C     0.01567   0.29084   1.50910
C     1.19031  -0.19920   1.06045
C     2.21225   0.42922   0.22257
C     3.33502  -0.29890  -0.21563
C     4.29591   0.29376  -1.03823
C     4.15511   1.62411  -1.44171
C     3.04076   2.35954  -1.01728
C     2.08011   1.77084  -0.19788
C     1.17782  -1.67396   1.50623
O     0.45415  -1.56581   2.75764
C     0.13434  -2.43834   0.65341
H    -0.74684  -2.81172  -2.97774
H    -1.43781  -3.25672  -1.39590
H     0.15932  -3.89446  -1.89012
H     0.08837   0.04851  -1.11576
H    -3.64403  -0.43340   0.90427
H    -4.76302   1.72326   1.41726
H    -4.04629   3.82042   0.25774
H    -2.22144   3.71540  -1.44513
H    -1.12313   1.57396  -1.97694
H    -2.03823  -2.42770   1.09961
H    -1.45533  -0.65612   2.92414
H    -0.41654   1.27635   1.35105
H     3.45552  -1.34141   0.08243
H     5.15888  -0.29008  -1.36715
H     4.90629   2.08692  -2.08591
H     2.91978   3.39917  -1.33096
H     1.21188   2.35272   0.11806
H     2.14459  -2.16702   1.64582
H     0.29474  -3.48409   0.39886
