13
Generated by autodE on: 2022-10-07. E = -245.298496 Ha
C     1.35570  -0.82475  -1.18265
N     0.36181   0.18400  -0.85772
C    -0.33266   0.20816   0.28239
N    -0.13555  -0.72866   1.21216
N    -1.23027   1.17527   0.49444
H     2.18077  -0.82739  -0.45231
H     0.91083  -1.83196  -1.22073
H     1.76966  -0.59186  -2.17005
H     0.17834   0.92189  -1.53030
H    -0.66635  -0.71037   2.07623
H     0.53614  -1.47432   1.07421
H    -1.76179   1.20350   1.35746
H    -1.38605   1.89457  -0.20324
