28
Generated by autodE on: 2022-10-07. E = -782.000238 Ha
C    -2.07565  -2.04470  -1.55405
O    -1.40740  -0.83608  -1.17265
C    -0.70383  -0.87919  -0.03863
O    -0.61711  -1.88061   0.65020
C    -0.10137   0.42601   0.32061
C    -0.81208   1.68819   0.09583
O    -0.28670   2.79167   0.04965
O    -2.13642   1.51681  -0.05303
C    -2.90139   2.68426  -0.37194
N     1.07342   0.43892   1.00601
C     1.36910   1.55445   1.94070
C     2.01989  -0.50627   0.92933
C     2.22889  -1.38661  -0.20484
C     3.48070  -2.22523  -0.14190
O     1.47435  -1.42977  -1.18281
H    -2.79881  -2.35017  -0.78382
H    -1.34481  -2.85152  -1.70932
H    -2.59608  -1.81861  -2.49202
H    -2.53989   3.14329  -1.30395
H    -2.84241   3.42188   0.44189
H    -3.93550   2.34208  -0.49630
H     2.04611   1.17196   2.71186
H     1.85613   2.36926   1.39421
H     0.44260   1.91013   2.40096
H     2.79056  -0.46197   1.69654
H     3.35210  -2.99955   0.63408
H     3.64923  -2.71170  -1.11136
H     4.35915  -1.62498   0.13974
