28
Generated by autodE on: 2022-10-13. E = -781.994941 Ha
C     2.69709   1.52783  -2.29175
O     2.08451   1.10556  -1.06976
C     0.86220   0.54187  -1.16803
O     0.28165   0.44592  -2.24426
C     0.36808   0.11548   0.13167
C     1.27337   0.23503   1.31123
O     1.03309   0.89435   2.30550
O     2.39935  -0.46743   1.15722
C     3.39882  -0.31491   2.17632
N    -0.91165  -0.31757   0.33199
C    -1.21498  -0.85234   1.68623
C    -1.87292  -0.30376  -0.59614
C    -3.24331  -0.80144  -0.49952
C    -4.02974  -0.59307  -1.77415
O    -3.77098  -1.34388   0.47660
H     2.83140   0.67648  -2.97543
H     2.08760   2.29761  -2.78774
H     3.67255   1.94235  -2.01122
H     3.01322  -0.65435   3.14831
H     3.70872   0.73758   2.25284
H     4.24468  -0.93821   1.86445
H    -1.30612  -0.01126   2.38200
H    -2.15252  -1.40500   1.63908
H    -0.39310  -1.50584   1.99825
H    -1.58077   0.11637  -1.55267
H    -3.53842  -1.10907  -2.61527
H    -5.04969  -0.97784  -1.64724
H    -4.06492   0.47843  -2.03058
