40
Generated by autodE on: 2022-05-30. E = -1470.114939 Ha. Imaginary frequency = -405.2 cm-1
C     2.26889   3.31951  -0.51510
N     1.56799   2.09969  -0.87316
C     2.19688   0.91686  -0.76484
O     3.39422   0.80309  -0.50525
C     1.33051  -0.31943  -0.99787
C     1.98781  -1.66826  -1.04248
C     3.03476  -1.97200  -0.00889
O     1.62257  -2.50018  -1.85897
N     0.36905  -0.14741  -1.96450
N    -0.78200  -0.03060  -2.02010
C    -1.32369  -0.14004   0.06072
C    -1.86438   1.22599   0.05713
O    -1.19427   2.24339  -0.07829
O    -3.19487   1.25261   0.16215
C    -3.82827   2.53939   0.09650
C    -2.19784  -1.38777   0.10903
C    -2.58620  -1.59289   1.60305
C    -1.23666  -2.00589   2.25596
C    -0.23671  -1.97578   1.06138
C    -1.14262  -2.49286  -0.07445
C    -0.07829  -0.50400   0.66427
Cl    0.71221   0.53387   1.87016
H     3.22027   3.39127  -1.05990
H     2.48805   3.35566   0.56598
H     1.64026   4.17930  -0.77838
H     0.54778   2.12742  -0.77072
H     2.89674  -1.39861   0.91614
H     3.02005  -3.05242   0.18895
H     4.01809  -1.69897  -0.42196
H    -4.90460   2.34789   0.17263
H    -3.59371   3.03324  -0.85731
H    -3.49427   3.17415   0.92961
H    -3.04055  -1.37370  -0.59153
H    -3.33616  -2.39325   1.68675
H    -3.01481  -0.68123   2.04054
H    -0.92405  -1.33667   3.06825
H    -1.27735  -3.02810   2.65810
H     0.70155  -2.50642   1.25251
H    -0.67298  -2.50406  -1.06412
H    -1.53830  -3.49487   0.14339
