25
Generated by autodE on: 2022-10-20. E = -3387.421519 Ha
C     2.83785   0.74074   1.38257
N     3.07695  -0.05067   0.18550
C     2.21322  -0.71008  -0.60142
O     2.53514  -1.26458  -1.64922
C     0.75412  -0.77245  -0.13678
N     0.48038  -1.42376   1.12803
C    -0.98375  -1.35804   0.94443
C    -1.82225  -1.94492   1.97064
N    -2.50306  -2.42438   2.77565
C    -1.11275  -2.00364  -0.48447
O    -1.99779  -2.67793  -0.93113
O     0.00675  -1.64069  -1.12752
C    -1.17552   0.14709   0.66452
O    -2.31669   0.68713   1.03813
C    -2.62484   2.04350   0.67217
C    -0.06535   0.50666  -0.01854
Br    0.40424   2.07245  -0.94087
H     2.83754   1.81794   1.15407
H     3.63713   0.54188   2.11027
H     1.88455   0.47147   1.84476
H     4.02139  -0.02302  -0.19579
H     0.80511  -2.39678   1.09820
H    -3.61052   2.24933   1.10453
H    -1.88080   2.73221   1.09640
H    -2.66841   2.14324  -0.42123
