17
Generated by autodE on: 2022-10-20. E = -621.862504 Ha
C     4.18245  -0.31150   0.55197
N     2.80839   0.13237   0.40828
C     1.81855  -0.73924   0.18628
O     1.94572  -1.96101   0.08026
C     0.46266  -0.14450   0.05870
N    -0.61795  -0.84416  -0.18255
C    -1.72009  -0.00083  -0.24933
C    -3.03455  -0.41458  -0.49243
N    -4.13889  -0.73625  -0.69360
C    -1.25512   1.32376  -0.02965
O    -1.74063   2.42885   0.02341
O     0.17687   1.14178   0.16431
H     4.81859   0.56304   0.72842
H     4.52489  -0.82873  -0.35764
H     4.28301  -1.00702   1.39950
H     2.59068   1.12293   0.47543
H    -0.61243  -1.85945  -0.30218
