25
Generated by autodE on: 2022-10-20. E = -3387.339972 Ha. Imaginary frequency = -456.8 cm-1
C     2.66948   0.69690   1.59374
N     2.99423  -0.14229   0.45220
C     2.18570  -0.90643  -0.29852
O     2.55358  -1.51807  -1.29927
C     0.73236  -1.01354   0.10537
N     0.28409  -1.18259   1.37292
C    -1.05724  -1.50617   1.25918
C    -1.95954  -1.61524   2.32936
N    -2.73499  -1.70551   3.19612
C    -1.25939  -2.01735  -0.07251
O    -2.19021  -2.54296  -0.63995
O    -0.02453  -1.80334  -0.71167
C    -1.41956   0.77308  -0.01525
O    -2.66723   0.98262   0.18110
C    -3.05320   1.65967   1.41448
C    -0.22313   0.77109  -0.39668
Br    0.84259   1.88926  -1.44016
H     3.43134   1.48225   1.67166
H     2.66845   0.13215   2.54081
H     1.69754   1.19311   1.46714
H     3.95901  -0.13286   0.12770
H     0.65214  -0.66227   2.16611
H    -4.14634   1.71651   1.38835
H    -2.71269   1.06983   2.27467
H    -2.60592   2.66285   1.42531
