37
Generated by autodE on: 2022-05-29. E = -1265.239031 Ha
C     0.19229   2.59151   0.51877
C    -0.14245   1.18085   0.95189
O    -0.01804   0.85073   2.11405
C    -0.71676   0.27923  -0.14331
C    -2.04948   0.92863  -0.66699
C    -2.99161   1.17073   0.53158
C    -3.39218  -0.27157   0.95889
C    -2.71419  -1.15882  -0.10675
C    -2.76013  -0.25189  -1.35033
C    -1.19856  -1.18331   0.15590
Cl   -0.78607  -1.97627   1.72714
N    -0.53132  -2.03908  -0.85639
N     0.23466  -1.41272  -1.59621
C     0.32269   0.03446  -1.28136
C     1.76903   0.36973  -0.98397
C     2.45373   1.30685  -1.76881
C     3.78329   1.63153  -1.48845
C     4.44424   1.01649  -0.42057
C     3.77079   0.07312   0.36204
C     2.44178  -0.25040   0.08073
H     1.12311   2.90678   1.01051
H     0.27637   2.71781  -0.56628
H    -0.61780   3.24633   0.88122
H    -1.86256   1.81277  -1.28827
H    -3.86717   1.74111   0.18974
H    -2.53163   1.74329   1.34776
H    -3.05409  -0.52388   1.97250
H    -4.48075  -0.41765   0.92317
H    -3.12851  -2.16957  -0.20323
H    -2.24090  -0.65501  -2.22965
H    -3.79005  -0.00028  -1.64139
H     0.02320   0.56514  -2.19566
H     1.93507   1.79096  -2.59980
H     4.30422   2.36759  -2.10515
H     5.48349   1.27056  -0.19920
H     4.28175  -0.41410   1.19563
H     1.92364  -0.98465   0.70183
