22
Generated by autodE on: 2022-05-29. E = -885.215162 Ha
C     2.81390  -0.56556   1.06491
C     1.87820  -0.42793  -0.10979
O     2.19279  -0.82990  -1.22785
C     0.58132   0.21509   0.15595
C    -0.53809   0.20302  -0.61265
Cl   -0.79386  -0.55653  -2.13809
C    -1.68498   0.80267   0.16622
C    -2.02104  -0.25019   1.27574
C    -0.76371  -0.20862   2.18940
C     0.14357   0.84595   1.48058
C    -0.91350   1.85517   0.98806
H     2.31046  -1.06813   1.90627
H     3.70612  -1.13143   0.76672
H     3.11374   0.43289   1.42369
H    -2.53982   1.12904  -0.43699
H    -2.21363  -1.24235   0.84377
H    -2.92556   0.06651   1.81490
H    -1.01722   0.13253   3.20399
H    -0.26215  -1.18267   2.27576
H     0.95716   1.23919   2.10035
H    -1.51487   2.28751   1.80172
H    -0.48844   2.65736   0.36752
