15
Generated by autodE on: 2022-05-29. E = -379.978882 Ha
N     3.22015   1.07936  -0.24764
N     2.45098   0.24351  -0.13166
C     1.55053  -0.68386  -0.00108
C     0.12814  -0.37140   0.03150
C    -0.79506  -1.42922   0.16920
C    -2.16617  -1.17508   0.20370
C    -2.64894   0.13458   0.10224
C    -1.73964   1.19022  -0.03405
C    -0.36695   0.94600  -0.06929
H     1.93057  -1.70343   0.07986
H    -0.42499  -2.45421   0.24863
H    -2.86447  -2.00889   0.31063
H    -3.72291   0.33134   0.12895
H    -2.10313   2.21771  -0.11406
H     0.32721   1.78302  -0.17584
