37
Generated by autodE on: 2022-05-29. E = -1265.179308 Ha. Imaginary frequency = -442.1 cm-1
C     0.19592   2.52101   0.77210
C     0.10951   1.02369   0.95946
O     0.93692   0.43548   1.65859
C    -0.96736   0.33345   0.24490
C    -2.14367   1.06510  -0.41282
C    -3.16573   1.34950   0.73112
C    -3.68887  -0.07260   1.09280
C    -2.92614  -0.98912   0.09283
C    -2.86642  -0.07981  -1.14876
C    -1.46361  -0.96316   0.51610
Cl   -1.01494  -1.92597   1.92012
N    -0.58284  -2.16056  -0.92986
N     0.14388  -1.44558  -1.49648
C     0.52634  -0.15816  -1.57418
C     1.90882   0.21888  -1.30793
C     2.37426   1.46474  -1.77028
C     3.66276   1.89622  -1.45615
C     4.50688   1.08770  -0.68710
C     4.05198  -0.15421  -0.22724
C     2.76185  -0.58619  -0.52734
H    -0.69433   3.01344   1.19544
H     0.22795   2.77711  -0.29755
H     1.09747   2.90053   1.27024
H    -1.87216   1.94243  -1.01124
H    -3.97791   1.99248   0.35938
H    -2.69688   1.86104   1.58319
H    -3.48264  -0.35612   2.13452
H    -4.77283  -0.15992   0.92805
H    -3.34294  -1.99673  -0.02705
H    -2.30207  -0.50346  -1.98984
H    -3.86607   0.21096  -1.50349
H    -0.02601   0.39920  -2.33804
H     1.71469   2.09135  -2.37497
H     4.01290   2.86528  -1.81895
H     5.51802   1.42371  -0.44636
H     4.70727  -0.78745   0.37528
H     2.40564  -1.54738  -0.15114
