25
Generated by autodE on: 2022-10-20. E = -3387.427200 Ha
C     3.86009  -2.83186   1.53181
N     2.67403  -2.14121   1.05890
C     2.68764  -0.83224   0.81274
O     3.66315  -0.09390   0.95232
C     1.39595  -0.20796   0.28796
N     1.14018   1.10391   0.81124
C     0.05660   1.38471  -0.15110
C    -0.55386   2.69900  -0.09417
N    -1.03366   3.75285  -0.06925
C     0.77523   1.04355  -1.50088
O     0.62612   1.52894  -2.58758
O     1.61582   0.03706  -1.19600
C    -0.85307   0.16054   0.07606
Br   -2.69735   0.23504  -0.24914
C     0.00343  -0.84733   0.35904
O    -0.08649  -2.14995   0.56513
C    -1.36602  -2.80500   0.56329
H     4.20153  -2.41483   2.49174
H     4.68331  -2.73890   0.80685
H     3.62014  -3.89264   1.66726
H     1.80411  -2.65238   0.92522
H     1.96169   1.69583   0.64276
H    -1.15888  -3.85637   0.79191
H    -1.83385  -2.72364  -0.42739
H    -2.01516  -2.37498   1.33859
