17
Generated by autodE on: 2022-10-26. E = -621.861788 Ha
C     2.01252  -3.57303   1.06377
N     1.34084  -2.46187   0.41928
C     0.87912  -1.39710   1.08715
O     0.94594  -1.20042   2.30227
C     0.22330  -0.36618   0.23881
N    -0.29754   0.73876   0.71065
C    -0.82810   1.49149  -0.33030
C    -1.46260   2.72949  -0.18078
N    -1.99607   3.76324  -0.08040
C    -0.60332   0.77051  -1.53360
O    -0.83543   0.92572  -2.70910
O     0.08672  -0.42770  -1.07444
H     2.06524  -3.38137   2.14135
H     3.03308  -3.68934   0.66855
H     1.46188  -4.51026   0.89144
H     1.21173  -2.49155  -0.58909
H    -0.29499   0.98055   1.70392
