17
Generated by autodE on: 2022-10-20. E = -621.856142 Ha
C    -2.72144  -1.19729   1.62347
N    -2.34387  -1.87421   0.38867
C    -1.31871  -1.62075  -0.43497
O    -1.06782  -2.26572  -1.45869
C    -0.40233  -0.48774  -0.12164
N     0.62630  -0.21006  -0.88726
C     1.30841   0.88900  -0.38862
C     2.45632   1.44866  -0.96194
N     3.41439   1.93260  -1.42132
C     0.62746   1.31266   0.78480
O     0.75624   2.18524   1.61071
O    -0.47065   0.36497   0.88725
H    -3.60035  -1.71349   2.02669
H    -2.98493  -0.14524   1.44641
H    -1.91751  -1.24094   2.37125
H    -2.91536  -2.66227   0.09113
H     0.85441  -0.75161  -1.72385
