8
Generated by autodE on: 2022-10-20. E = -2765.505921 Ha
C    -3.65524   0.16090   0.25772
O    -2.65218  -0.88186   0.34541
C    -1.42085  -0.50937   0.19049
C    -0.25505  -0.20375   0.05126
Br    1.48025   0.24436  -0.15329
H    -4.61987  -0.33508   0.41519
H    -3.62167   0.62775  -0.73756
H    -3.47930   0.91435   1.03941
