25
Generated by autodE on: 2022-10-20. E = -3387.345847 Ha. Imaginary frequency = -421.7 cm-1
C     3.92950  -2.92554   1.27321
N     3.10580  -1.95061   0.58226
C     2.42949  -1.01395   1.25298
O     2.45982  -0.84165   2.47234
C     1.55473  -0.12705   0.42434
N     1.20784   1.10234   0.86545
C     0.53045   1.70020  -0.15452
C    -0.18941   2.90613  -0.06829
N    -0.81282   3.88870  -0.02973
C     0.89775   1.01143  -1.38166
O     0.69007   1.22503  -2.54953
O     1.66203  -0.08100  -0.93530
C    -1.14340  -0.17247  -0.05773
Br   -2.65205   0.48051  -0.84179
C    -0.37911  -0.99611   0.49330
O    -0.13610  -2.14402   1.09574
C    -1.28845  -2.99979   1.24449
H     4.66761  -2.42418   1.91651
H     4.45715  -3.53299   0.52905
H     3.31446  -3.58590   1.90549
H     2.98408  -2.02083  -0.42384
H     1.06840   1.29213   1.85884
H    -0.93736  -3.90006   1.76300
H    -1.69134  -3.26208   0.25459
H    -2.05869  -2.49006   1.84302
