41
Generated by autodE on: 2022-07-07. E = -3510.097742 Ha
C     0.37428   1.93967   4.43334
N     0.46197   1.35258   3.10989
C     1.09524   0.18994   2.89817
O     1.62018  -0.47177   3.79362
C     1.12567  -0.29956   1.43947
Br    2.97375   0.24436   0.76903
C     0.15915   0.28031   0.53540
C    -0.63558   0.30788  -0.37918
C    -1.45843  -0.15103  -1.48927
C    -1.39443   0.74675  -2.73881
O    -2.02903   0.44854  -3.76081
N    -0.59683   1.81719  -2.67367
C    -0.40262   2.69503  -3.81298
C    -2.91444  -0.38002  -0.98934
O    -3.15201  -0.50379   0.21579
N    -3.84845  -0.49853  -1.93868
C    -5.23233  -0.78113  -1.61342
C    -0.83359  -1.54797  -1.88798
C    -0.53486  -2.51010  -0.72138
C     0.86925  -2.43949  -0.05475
C     0.98670  -1.83157   1.35436
H     1.37017   2.22120   4.81177
H    -0.25269   2.83770   4.38199
H    -0.07329   1.23139   5.14718
H     0.04209   1.83920   2.32380
H    -0.07694   1.99073  -1.81853
H    -1.36792   3.06926  -4.18527
H     0.21420   3.54640  -3.50185
H     0.10303   2.17129  -4.63983
H    -3.55250  -0.34193  -2.90324
H    -5.32799  -1.74134  -1.08224
H    -5.81160  -0.83225  -2.54332
H    -5.66129   0.00407  -0.97053
H    -1.53312  -2.01332  -2.59620
H     0.09500  -1.33900  -2.44218
H    -0.64024  -3.52233  -1.14037
H    -1.32326  -2.42629   0.04399
H     1.23312  -3.47352   0.04144
H     1.58362  -1.94038  -0.73044
H     0.08653  -2.08371   1.94146
H     1.84035  -2.26587   1.89255
