32
Generated by autodE on: 2022-07-27. E = -880.311072 Ha
C    -2.59506  -1.35305  -2.48195
O    -1.72608  -0.75596  -1.51991
C    -2.22605  -0.59529  -0.26335
O    -3.39687  -0.86291  -0.00078
C    -1.25040  -0.06805   0.64509
O     0.05269   0.19304   0.18968
C     0.87780  -0.65087  -0.32271
C     0.55501  -2.08768  -0.41003
C     2.14025  -0.07644  -0.74957
C     2.43515   1.27629  -0.45805
C     3.64495   1.82708  -0.86110
C     4.56946   1.04815  -1.57096
C     4.28387  -0.28819  -1.87148
C     3.07966  -0.85368  -1.46112
C    -1.48021   0.61343   1.88723
O    -0.61008   1.22705   2.50746
O    -2.75062   0.51533   2.34644
C    -3.02243   1.16116   3.59106
H    -2.92923  -2.34724  -2.14914
H    -2.00855  -1.44642  -3.40424
H    -3.47706  -0.72071  -2.66373
H     0.10899  -2.31928  -1.39068
H     1.46021  -2.69371  -0.28553
H    -0.19282  -2.34073   0.35729
H     1.71187   1.87324   0.09769
H     3.87342   2.86834  -0.62555
H     5.51707   1.48697  -1.89143
H     5.00413  -0.89123  -2.42753
H     2.86410  -1.89453  -1.70333
H    -2.39557   0.74941   4.39663
H    -4.08044   0.96743   3.80711
H    -2.84855   2.24578   3.52245
