32
Generated by autodE on: 2022-07-07. E = -880.311732 Ha
C    -1.76200  -3.46266   0.82429
O    -1.24901  -2.19127   0.42672
C    -2.15188  -1.17853   0.31600
O    -3.35734  -1.37207   0.46340
C    -1.53508   0.07097  -0.01419
O    -0.14117   0.14724  -0.16484
C     0.74543  -0.13200   0.72675
C     0.36053  -0.49538   2.10372
C     2.11769  -0.01263   0.27244
C     2.39490   0.50960  -1.01311
C     3.70918   0.63408  -1.44500
C     4.76295   0.22750  -0.61463
C     4.49926  -0.30064   0.65394
C     3.18640  -0.41803   1.10149
C    -2.23859   1.20087  -0.54545
O    -3.45873   1.32472  -0.63067
O    -1.39034   2.18855  -0.95459
C    -2.00106   3.35112  -1.51345
H    -0.89422  -4.12886   0.90444
H    -2.27329  -3.39565   1.79633
H    -2.46585  -3.85598   0.07549
H    -0.63843  -0.08800   2.32257
H     1.09754  -0.12001   2.82330
H     0.29707  -1.59100   2.20438
H     1.57028   0.82420  -1.65277
H     3.91968   1.04728  -2.43337
H     5.79480   0.32200  -0.96042
H     5.32153  -0.62151   1.29619
H     2.99089  -0.83566   2.08934
H    -2.66574   3.83907  -0.78431
H    -1.17953   4.02840  -1.77822
H    -2.58269   3.10170  -2.41420
