16
Generated by autodE on: 2022-06-04. E = -641.718219 Ha
C     4.09415  -0.18798  -0.46340
O     2.67727  -0.44849  -0.47785
C     1.90055   0.48114   0.05019
O     2.25491   1.53360   0.53869
C     0.47525   0.09721  -0.00854
N    -0.50576   0.83638   0.45517
C    -1.71200   0.19083   0.25708
C    -2.96493   0.69324   0.62998
N    -4.02068   1.08943   0.93082
C    -1.42881  -1.05077  -0.38390
O    -2.07090  -1.99155  -0.78444
O     0.01208  -1.03193  -0.51933
H     4.44664  -0.08894   0.57286
H     4.56028  -1.05234  -0.94798
H     4.31364   0.73325  -1.02099
H    -0.36931   1.74959   0.89523
