41
Generated by autodE on: 2022-10-21. E = -3588.918844 Ha
C    -4.07528  -2.89565   1.56023
N    -2.91941  -2.08109   1.24920
C    -2.62277  -1.63640   0.02099
O    -3.29394  -1.86228  -0.99067
C    -1.36571  -0.71967  -0.04060
C    -1.88428   0.70878  -0.00430
C    -1.79195   1.47236   1.16540
C    -2.26252   2.78809   1.18596
C    -2.83843   3.34841   0.04243
C    -2.95465   2.57924  -1.12030
C    -2.48563   1.26432  -1.14253
O    -0.52642  -0.95044   1.08795
C     0.31728  -2.07470   0.80821
C     0.57356  -2.05643  -0.69912
C     1.86656  -1.35003  -1.21203
O     1.41534  -0.86901  -2.49246
C     0.37639  -0.02492  -1.97231
C     1.14084   0.80170  -0.93698
O     0.75772   2.05831  -0.71191
C     1.27118   2.75596   0.42444
C     2.08094  -0.04028  -0.45821
Br    3.38538   0.12725   0.89516
C    -0.51491  -1.10276  -1.26793
H    -4.63574  -2.46247   2.40233
H    -3.78222  -3.92305   1.82995
H    -4.72922  -2.93595   0.68063
H    -2.25823  -1.84497   1.98425
H    -1.33263   1.04186   2.05456
H    -2.17223   3.37941   2.10028
H    -3.19965   4.37938   0.05729
H    -3.40945   3.00630  -2.01719
H    -2.58156   0.66984  -2.05224
H    -0.19097  -3.00758   1.10307
H     1.22302  -1.96422   1.41934
H     0.51355  -3.06223  -1.13229
H     2.74793  -1.99348  -1.31157
H    -0.11313   0.55589  -2.76051
H     0.73456   3.71151   0.46236
H     2.34994   2.94227   0.31564
H     1.07780   2.18999   1.34663
H    -1.13938  -1.57684  -2.03137
