17
Generated by autodE on: 2022-10-21. E = -2995.673361 Ha
C     2.66017   0.78505  -0.60141
O     1.59529   0.69917  -1.55202
C     0.41957   0.20691  -1.15955
C    -0.13098  -0.26958  -0.02602
Br    0.46859  -0.41013   1.75376
C    -1.61689  -0.50852  -0.39395
C    -2.27317   0.87471  -0.61980
C    -1.71919   1.33420  -1.74570
C    -0.74424   0.21729  -2.18235
O    -1.46787  -0.94932  -1.75664
H     3.52478   1.18557  -1.14514
H     2.90640  -0.20951  -0.20014
H     2.39595   1.46448   0.22240
H    -2.15668  -1.23445   0.22410
H    -2.98255   1.35149   0.05588
H    -1.84327   2.29172  -2.24990
H    -0.44316   0.17532  -3.23490
