24
Generated by autodE on: 2022-10-26. E = -593.090783 Ha
C     2.48517  -1.78546   0.95233
O     1.77493  -0.77275   0.60862
C     0.52660  -0.57221   0.15984
C    -0.34855  -1.72835   0.04359
O     0.09515  -2.89314   0.15252
N    -1.67934  -1.51964  -0.16277
C    -2.60679  -2.63113  -0.19343
C     0.22983   0.84143  -0.07008
C     0.95450   1.84023   0.62401
C     0.70656   3.19370   0.40626
C    -0.27509   3.60187  -0.50500
C    -0.99361   2.62956  -1.20617
C    -0.74296   1.27139  -1.00192
H     2.08218  -2.79369   0.89194
H     3.48759  -1.52494   1.29697
H    -2.05483  -0.58336  -0.07097
H    -2.68334  -3.14183   0.78271
H    -2.29551  -3.38010  -0.93695
H    -3.60028  -2.25548  -0.46978
H     1.71457   1.54204   1.34780
H     1.28031   3.93962   0.96228
H    -0.47249   4.66357  -0.66889
H    -1.75058   2.92752  -1.93597
H    -1.28892   0.54087  -1.59867
