41
Generated by autodE on: 2022-10-21. E = -3588.780152 Ha. Imaginary frequency = -175.4 cm-1
C    -4.71472  -2.38105   0.83805
N    -3.71123  -1.34057   0.76443
C    -2.39938  -1.61359   0.99295
O    -2.03870  -2.78091   1.25406
C    -1.45435  -0.49726   0.92310
C    -1.81707   0.91711   0.75739
C    -1.27606   1.89530   1.61666
C    -1.58629   3.24467   1.45069
C    -2.44626   3.65349   0.42597
C    -2.98774   2.69403  -0.43599
C    -2.67497   1.34344  -0.27818
O    -0.21650  -0.65830   1.40930
C     0.49030  -1.72428   1.60781
C     0.55462  -2.34486  -0.88852
C     1.79798  -1.65754  -1.50428
O     1.28064  -1.32842  -2.81809
C     0.15309  -0.58083  -2.30244
C     0.89993   0.44751  -1.42868
O     0.41557   1.68774  -1.35478
C     1.15582   2.67248  -0.63044
C     1.94346  -0.23712  -0.92157
Br    3.29049   0.19182   0.32420
C    -0.49469  -1.65346  -1.39825
H    -4.85092  -2.75853   1.86647
H    -4.43816  -3.23646   0.20339
H    -5.67174  -1.97594   0.48549
H    -4.01524  -0.37770   0.68415
H    -0.60697   1.58657   2.42174
H    -1.15317   3.98383   2.12910
H    -2.68895   4.71073   0.29742
H    -3.64631   3.00040  -1.25235
H    -3.06758   0.61673  -0.99116
H     0.00473  -2.68916   1.69959
H     1.50493  -1.51414   1.94658
H     0.56302  -3.32325  -0.41699
H     2.71750  -2.25050  -1.55636
H    -0.46939  -0.14961  -3.09389
H     2.15659   2.79893  -1.07171
H     0.58987   3.60700  -0.72000
H     1.24529   2.39999   0.42928
H    -1.55066  -1.90353  -1.41310
