10
Generated by autodE on: 2022-06-01. E = -322.365474 Ha
C    -2.56171   0.49002  -0.38538
C    -1.55905  -0.35822   0.32946
O    -1.83081  -1.25405   1.10866
C    -0.14947  -0.06298   0.05053
C     1.02381   0.17644  -0.16999
C     2.34486   0.44999  -0.41990
N     3.46796   0.68325  -0.63302
H    -2.41351   0.39685  -1.47401
H    -2.39689   1.54929  -0.12677
H    -3.57751   0.18048  -0.10740
