35
Generated by autodE on: 2022-06-01. E = -932.864894 Ha
C     4.50945  -1.03524   0.61597
N     3.59800  -0.57820  -0.41291
C     2.30597  -0.28712  -0.13228
O     1.83063  -0.48843   1.00160
C     1.51212   0.29582  -1.22296
C     2.14190   0.68571  -2.41631
N     2.72194   0.97754  -3.39171
N     0.19153   0.66667  -1.00950
C    -0.28272   1.85753  -1.74560
C    -0.61483   0.02619  -0.16771
C    -0.35743  -1.41853   0.13077
O     0.10832  -2.21134  -0.66461
O    -0.80685  -1.75785   1.33686
C    -0.66105  -3.13556   1.70949
C    -1.79586   0.67470   0.41890
C    -3.03497   0.00511   0.45781
C    -4.14928   0.61852   1.02720
C    -4.04352   1.90082   1.57806
C    -2.81426   2.56752   1.55739
C    -1.69751   1.96200   0.98240
H     4.80398  -0.22492   1.30507
H     4.04200  -1.83216   1.21162
H     5.41397  -1.43298   0.13870
H     3.98517  -0.30534  -1.31045
H    -1.36983   1.93189  -1.67419
H     0.19715   2.76103  -1.34938
H    -0.00287   1.73304  -2.79942
H    -1.08242  -3.22074   2.71743
H     0.40284  -3.41319   1.71484
H    -1.20777  -3.78438   1.01050
H    -3.12596  -0.99342   0.02636
H    -5.10684   0.09337   1.04074
H    -4.91745   2.37698   2.02832
H    -2.72173   3.56253   1.99830
H    -0.73627   2.47828   0.98757
