28
Generated by autodE on: 2022-05-29. E = -691.408529 Ha
C    -2.75098   2.30076   0.53847
C    -1.37835   1.90141   0.05037
O    -0.47248   2.73393  -0.01273
C    -1.22094   0.49454  -0.32719
C    -0.14060  -0.34081  -0.33396
C     1.28258  -0.18418  -0.06394
C     1.97608   1.02744  -0.27293
C     3.34038   1.11927  -0.00036
C     4.04170   0.01358   0.49208
C     3.36935  -1.19526   0.70201
C     2.00941  -1.29833   0.41593
C    -0.76499  -1.75106  -0.56604
C    -1.52485  -2.12530   0.72214
C    -2.58321  -1.30960   0.73648
C    -2.43768  -0.45306  -0.53960
O    -1.84870  -1.40519  -1.43597
H    -3.46724   2.26537  -0.29930
H    -3.12046   1.60353   1.30720
H    -2.71769   3.32162   0.94050
H     1.42794   1.88838  -0.64756
H     3.86212   2.06303  -0.17596
H     5.11021   0.09129   0.70628
H     3.90885  -2.06423   1.08547
H     1.50228  -2.24945   0.58638
H    -0.10619  -2.50492  -1.00782
H    -1.18983  -2.85608   1.45711
H    -3.36442  -1.18992   1.48629
H    -3.34531  -0.00399  -0.95399
