23
Generated by autodE on: 2022-10-13. E = -605.348132 Ha
C     5.04280   0.66858  -0.66893
N     3.92399  -0.22992  -0.48937
C     2.65595   0.17948  -0.30584
O     2.29636   1.36877  -0.26699
N     1.76585  -0.90007  -0.16624
N     0.56421  -0.44864  -0.00767
N    -0.45023  -1.18560   0.18021
C    -1.68724  -0.52648   0.23424
C    -2.72514  -1.20985   0.89410
C    -3.99015  -0.63466   1.00075
C    -4.24242   0.62199   0.43884
C    -3.22016   1.29427  -0.24080
C    -1.95071   0.72778  -0.35389
H     5.79846   0.52355   0.11945
H     4.68085   1.70222  -0.62262
H     5.52816   0.50814  -1.64485
H     4.08526  -1.23223  -0.50543
H     0.49248   0.59871  -0.03272
H    -2.51326  -2.18873   1.32812
H    -4.78501  -1.17110   1.52386
H    -5.23519   1.07020   0.51768
H    -3.41646   2.26423  -0.70345
H    -1.18230   1.25156  -0.92679
