23
Generated by autodE on: 2022-10-06. E = -605.346577 Ha
C     4.59240   1.28433   0.73922
N     3.16623   1.04953   0.68668
C     2.58050   0.18395  -0.16093
O     3.18757  -0.51116  -0.99150
N     1.18212   0.15201  -0.00030
N     0.66769  -0.69380  -0.84280
N    -0.53661  -1.03928  -1.04880
C    -1.61015  -0.51196  -0.32794
C    -2.86018  -1.03653  -0.73216
C    -4.04025  -0.62566  -0.12357
C    -4.00231   0.32170   0.90809
C    -2.77384   0.84711   1.31731
C    -1.58038   0.44387   0.71395
H     5.08544   0.65105  -0.00742
H     4.99873   1.03906   1.73341
H     4.82957   2.33769   0.52035
H     2.55637   1.55877   1.31871
H     1.36646  -1.16703  -1.45238
H    -2.87144  -1.77391  -1.53690
H    -4.99468  -1.04338  -0.45185
H    -4.92720   0.64737   1.38953
H    -2.73833   1.58596   2.12157
H    -0.63305   0.85910   1.03994
