33
Generated by autodE on: 2022-10-06. E = -1060.364120 Ha. Imaginary frequency = -415.3 cm-1
C     4.59547   0.88980  -1.55148
N     3.45201  -0.00013  -1.61210
C     2.19991   0.52187  -1.67038
O     1.96716   1.67853  -2.03748
N     1.19923  -0.40771  -1.35517
N    -0.00038   0.14752  -1.24856
N    -0.93400  -0.70953  -0.92296
C    -2.18664  -0.15953  -0.62264
C    -3.15669  -1.03251  -0.09212
C    -4.43520  -0.56896   0.20862
C    -4.77853   0.76825  -0.02516
C    -3.82546   1.63591  -0.56776
C    -2.53813   1.18482  -0.86326
C     0.09657  -1.50838   0.83799
C    -0.72495  -0.80599   1.88476
O    -1.52353  -1.53863   2.53863
O    -0.60160   0.44247   2.02790
C     1.42283  -1.17588   0.46594
C     2.26210  -0.12905   1.21340
O     2.09801   1.09519   0.98105
O     3.09610  -0.62712   2.01347
H     4.57858   1.51201  -0.63923
H     4.61013   1.55947  -2.42260
H     5.51583   0.29223  -1.55588
H     3.54657  -0.90169  -1.15569
H    -0.01784   1.09288  -0.82601
H    -2.88509  -2.07276   0.08821
H    -5.17315  -1.25883   0.62511
H    -5.78390   1.12803   0.20457
H    -4.08586   2.67758  -0.77091
H    -1.82257   1.87577  -1.31153
H    -0.20379  -2.54384   0.66349
H     2.02566  -2.03332   0.15263
