24
Generated by autodE on: 2022-06-01. E = -589.267100 Ha
C    -2.85669   0.65657   1.19079
C    -1.94304   0.21228   0.08022
O    -1.48818   1.00990  -0.74657
N    -1.70400  -1.13720   0.08095
N    -0.73945  -1.60918  -0.69783
C    -1.09224  -2.87491  -1.36609
N     0.43090  -1.17700  -0.92628
C     1.00604  -0.11796  -0.21467
C     1.94974   0.64587  -0.92484
C     2.65632   1.66287  -0.28541
C     2.46647   1.89673   1.08028
C     1.55715   1.11094   1.79901
C     0.81306   0.12077   1.16151
H    -2.22549   0.95038   2.04795
H    -3.52874  -0.14624   1.52045
H    -3.42999   1.53938   0.87612
H    -1.96122  -2.68932  -2.01075
H    -0.23036  -3.22200  -1.94303
H    -1.36516  -3.60114  -0.58980
H     2.10962   0.42902  -1.98242
H     3.37100   2.26368  -0.85209
H     3.02940   2.68387   1.58652
H     1.41682   1.27833   2.86928
H     0.10440  -0.47592   1.73436
