25
Generated by autodE on: 2022-06-01. E = -573.273620 Ha
C     3.62751  -0.22470   1.35479
N     2.19775  -0.37748   1.18533
C     1.45235   0.41530   0.38754
O     1.92154   1.34247  -0.28756
C     0.00190   0.09630   0.35390
C    -0.87497   0.57121  -0.56905
C    -0.61641   1.43640  -1.66273
N    -0.49737   2.15108  -2.58979
C    -2.20670  -0.14043  -0.35336
C    -1.96768  -1.61349  -0.81701
C    -0.97108  -2.15568   0.24499
C    -0.75600  -0.92311   1.18607
C    -2.16903  -0.30282   1.17921
H     3.87411   0.12994   2.36891
H     3.99607   0.50728   0.62690
H     4.14044  -1.18418   1.18987
H     1.72846  -1.10077   1.72006
H    -3.07697   0.35126  -0.80240
H    -1.57405  -1.65639  -1.84196
H    -2.91935  -2.16394  -0.79511
H    -0.02311  -2.50449  -0.18706
H    -1.40741  -2.98384   0.82175
H    -0.32066  -1.16301   2.16365
H    -2.94070  -0.98914   1.55771
H    -2.22162   0.65512   1.71636
