49
Generated by autodE on: 2022-06-01. E = -1162.521571 Ha. Imaginary frequency = -333.7 cm-1
C     4.09497   1.85047   1.80504
N     3.29734   1.12570   0.83694
C     2.28945   0.31940   1.22193
O     2.04946   0.05695   2.40641
C     1.49013  -0.26911   0.08479
C     2.22043  -0.82505  -1.14258
C     2.90834  -2.13391  -0.64476
C     1.71521  -3.10916  -0.43835
C     0.49015  -2.23032  -0.81692
C     1.05987  -1.39314  -1.97296
C     0.39289  -1.16485   0.27836
C    -0.21128  -1.46010   1.52538
N    -0.79719  -1.75672   2.49077
N    -1.21369   0.22948  -0.49453
C    -2.56645  -0.02382  -0.21536
C    -3.51153   1.02355  -0.18574
C    -4.86555   0.73779  -0.01871
C    -5.30024  -0.58342   0.12851
C    -4.36542  -1.62296   0.08672
C    -3.00934  -1.35357  -0.09408
N    -0.66453   1.30176   0.00717
C    -0.98406   1.84395   1.34784
N     0.59991   1.48266  -0.35308
C     0.94518   2.00678  -1.57272
C    -0.15560   2.59249  -2.42388
O     2.13176   2.06641  -1.89963
H     4.96916   2.28180   1.30087
H     3.52437   2.66658   2.28210
H     4.44163   1.17197   2.59683
H     3.26552   1.46721  -0.12431
H     2.89199  -0.12396  -1.64181
H     3.49640  -1.97205   0.26983
H     3.59628  -2.49653  -1.42190
H     1.77806  -3.97307  -1.11640
H     1.64181  -3.49150   0.58994
H    -0.43571  -2.78607  -1.00003
H     0.36242  -0.63097  -2.33959
H     1.40816  -2.01435  -2.81063
H    -3.18472   2.05437  -0.32880
H    -5.58655   1.55846  -0.00875
H    -6.36142  -0.80189   0.26517
H    -4.69305  -2.65951   0.19340
H    -2.29380  -2.17249  -0.13150
H    -1.90931   1.40422   1.72811
H    -0.15043   1.59258   2.01630
H    -1.08436   2.93437   1.27402
H     0.27813   2.95911  -3.36200
H    -0.63809   3.42592  -1.89018
H    -0.92960   1.84099  -2.63483
