12
Generated by autodE on: 2022-06-17. E = -157.299005 Ha
C    -1.62614  -0.35855   0.22451
C    -0.59830   0.70317  -0.02999
C     0.72935   0.54604  -0.15324
C     1.51202  -0.72988  -0.06471
H    -2.18412  -0.14952   1.15441
H    -2.37741  -0.37797  -0.58472
H    -1.19333  -1.36569   0.30841
H    -0.99455   1.72219  -0.12501
H     1.32665   1.44730  -0.34133
H     2.27525  -0.66669   0.73090
H     2.06349  -0.91790  -1.00300
H     0.88230  -1.60758   0.13946
