20
Generated by autodE on: 2022-06-17. E = -661.819416 Ha
N    -0.59817  -2.80022   1.00718
C    -0.34333  -1.73276   0.62217
C     0.04493  -0.44352   0.14713
O    -0.84149   0.45737  -0.13145
C    -2.18432   0.51749  -0.07986
C    -2.72988   1.73920  -0.51559
N    -3.20461   2.74452  -0.87448
C    -2.99904  -0.53313   0.37289
N    -3.72365  -1.37262   0.74225
C     1.43690  -0.10311  -0.03755
C     1.79849   1.17538  -0.52250
C     3.13928   1.49425  -0.69361
C     4.13478   0.55517  -0.38639
C     3.78327  -0.71139   0.09403
C     2.44423  -1.04568   0.26921
H     1.02246   1.90376  -0.75942
H     3.41640   2.48143  -1.06866
H     5.18710   0.81368  -0.52239
H     4.55808  -1.44199   0.33357
H     2.17468  -2.03449   0.64433
