64
Generated by autodE on: 2022-06-13. E = -4195.052847 Ha
C     9.25385  -5.74457 -21.46444
N     8.05638  -5.11651 -20.94342
C     6.91927  -5.79054 -20.80631
O     6.76284  -6.96277 -21.16616
C     5.66697  -5.04673 -20.26133
C     5.87216  -3.58519 -19.80490
O     6.75573  -2.84095 -20.17630
O     4.87516  -3.21590 -19.02292
C     4.81420  -1.84577 -18.59750
N     4.73757  -4.95430 -21.40766
C     3.41196  -5.33245 -20.91655
C     2.62902  -4.10149 -20.59615
N     2.04485  -3.12790 -20.36769
C     2.66991  -6.01830 -21.99614
N     2.10921  -6.48004 -22.89782
C     3.67070  -6.14684 -19.61664
C     4.93573  -5.89456 -19.19724
C     5.59703  -6.21644 -17.84288
C     5.55858  -7.73065 -17.55138
C     5.55989  -8.66003 -18.60133
C     5.59320 -10.03338 -18.34849
C     5.63811 -10.50695 -17.03607
C     5.66856  -9.58921 -15.98127
C     5.63729  -8.21680 -16.23718
C     7.11392  -5.81843 -17.84360
C     8.10809  -6.77344 -18.12829
C     9.46102  -6.43497 -18.16459
C     9.86988  -5.12268 -17.91944
C     8.90324  -4.16261 -17.62242
C     7.55007  -4.50936 -17.57354
C     4.87160  -5.35639 -16.73812
C     3.35732  -5.14121 -16.75677
C     2.43202  -6.33732 -16.55987
C     2.51662  -7.45295 -17.60273
C     2.53476  -6.98303 -19.06716
Br    2.49767  -8.72421 -20.17583
C     1.23169  -6.38314 -19.36417
N     0.18379  -5.91575 -19.53591
H     9.39874  -6.73201 -21.00539
H    10.11745  -5.11110 -21.22969
H     9.19398  -5.87787 -22.55751
H     8.06772  -4.13872 -20.65835
H     5.72067  -1.58966 -18.03182
H     4.71751  -1.18620 -19.47078
H     3.92712  -1.77289 -17.95962
H     5.01877  -5.64895 -22.10164
H     5.54841  -8.30701 -19.63123
H     5.57984 -10.73375 -19.18678
H     5.65760 -11.58055 -16.83484
H     5.71750  -9.94191 -14.94833
H     5.67105  -7.52946 -15.39273
H     7.83171  -7.80312 -18.34089
H    10.19829  -7.20723 -18.39475
H    10.92806  -4.85402 -17.95483
H     9.19427  -3.12911 -17.42141
H     6.84692  -3.71950 -17.32306
H     5.18043  -5.74883 -15.76084
H     5.28571  -4.34859 -16.79235
H     3.15306  -4.43516 -15.93513
H     3.07064  -4.59435 -17.66771
H     1.39650  -5.96118 -16.52490
H     2.62691  -6.80702 -15.58178
H     1.64109  -8.10785 -17.49548
H     3.39398  -8.07892 -17.44192
