23
Generated by autodE on: 2022-06-13. E = -754.657636 Ha
C    -3.37635   2.45792  -1.36530
N    -2.23263   1.95777  -0.62792
C    -1.65227   0.79943  -0.94403
O    -2.03065   0.06126  -1.87109
C    -0.46401   0.36393  -0.13952
N     0.04187  -0.75618  -0.63501
C     1.11267  -1.55573  -0.45022
C     2.22341  -1.29159   0.38916
N     3.20879  -1.16154   0.99811
C     1.18700  -2.72394  -1.25432
N     1.26360  -3.69095  -1.90086
C    -0.01364   1.04502   1.08309
O    -0.31613   2.19339   1.36954
O     0.70954   0.25119   1.85965
C     1.27380   0.81322   3.05483
H    -3.12481   2.62345  -2.42495
H    -3.69277   3.40909  -0.92169
H    -4.21534   1.74628  -1.32250
H    -1.81796   2.50079   0.12852
H    -0.58395  -1.04531  -1.42155
H     0.47249   1.13390   3.73497
H     1.91399   1.67031   2.80324
H     1.86763   0.01264   3.50855
