41
Generated by autodE on: 2022-06-13. E = -3440.323807 Ha
N    -2.94018   3.28915  -0.67511
C    -2.60479   2.33699  -0.10317
C    -2.19481   1.10688   0.57790
Br   -2.64194   1.41902   2.53267
C    -0.78355   0.84984   0.39538
C     0.16867   0.30776  -0.12404
C     0.96284  -0.60541  -0.94807
C     2.13134   0.08037  -1.66836
C     3.04697  -0.69884  -2.39180
C     4.09423  -0.09730  -3.09218
C     4.24585   1.29383  -3.07538
C     3.34010   2.07525  -2.35418
C     2.28849   1.47145  -1.65625
C     1.50107  -1.73510  -0.05072
C     1.39122  -3.08898  -0.38969
C     1.93841  -4.07472   0.44067
C     2.60003  -3.72046   1.61794
C     2.71437  -2.36881   1.96291
C     2.16893  -1.38790   1.13441
C    -0.08136  -1.08364  -2.01773
C    -1.43609  -1.60581  -1.49152
C    -2.61211  -0.60070  -1.34291
C    -2.99357  -0.12463   0.07447
H     2.94429  -1.78575  -2.40286
H     4.79845  -0.71881  -3.65055
H     5.06806   1.76450  -3.61947
H     3.44961   3.16221  -2.33068
H     1.58433   2.09083  -1.09697
H     0.88262  -3.39244  -1.30454
H     1.84238  -5.12651   0.16071
H     3.02440  -4.49166   2.26505
H     3.23058  -2.07788   2.88094
H     2.26502  -0.33375   1.40659
H     0.40805  -1.85851  -2.62470
H    -0.25457  -0.23251  -2.69374
H    -1.29120  -2.14659  -0.54241
H    -1.76459  -2.36922  -2.21318
H    -2.45666   0.27032  -2.00210
H    -3.51542  -1.09813  -1.72703
H    -4.06093   0.13808   0.11176
H    -2.82418  -0.93364   0.79973
