64
Generated by autodE on: 2022-06-13. E = -4194.971503 Ha. Imaginary frequency = -335.2 cm-1
C     8.58620  -7.67069 -20.68525
N     7.71311  -6.51707 -20.64255
C     6.48196  -6.49663 -21.15349
O     5.98446  -7.39682 -21.84950
C     5.60529  -5.31315 -20.80209
C     6.22057  -3.99129 -20.49239
O     7.39562  -3.83569 -20.21503
O     5.36747  -2.99390 -20.65998
C     5.84058  -1.65335 -20.46191
N     4.44979  -5.38721 -21.50182
C     3.21590  -4.97306 -21.10447
C     2.93637  -3.78289 -20.34573
N     2.55739  -2.88507 -19.71236
C     2.13008  -5.36443 -21.96043
N     1.24210  -5.66471 -22.64663
C     3.32327  -6.13772 -19.16969
C     4.51280  -6.05776 -18.78402
C     5.43299  -6.29262 -17.62713
C     6.09265  -7.67581 -17.75836
C     5.79697  -8.54611 -18.81390
C     6.35780  -9.82649 -18.87272
C     7.21831 -10.26618 -17.86659
C     7.50207  -9.41556 -16.79207
C     6.94003  -8.13955 -16.73565
C     6.43648  -5.12728 -17.49076
C     7.82545  -5.30634 -17.47996
C     8.68882  -4.22482 -17.27356
C     8.18028  -2.94102 -17.07368
C     6.79624  -2.74554 -17.10520
C     5.93722  -3.82389 -17.32203
C     4.57310  -6.34722 -16.28556
C     3.27490  -5.52369 -16.20387
C     1.99785  -6.36830 -16.32826
C     1.93772  -7.37152 -17.48395
C     2.01605  -6.74306 -18.89110
Br    1.77616  -8.29189 -20.21299
C     0.87702  -5.85874 -19.13293
N    -0.03508  -5.15692 -19.27566
H     8.07569  -8.49559 -21.19392
H     8.84568  -7.98470 -19.66266
H     9.51672  -7.43785 -21.22646
H     8.00657  -5.68490 -20.13188
H     4.96594  -1.00884 -20.60308
H     6.61833  -1.41628 -21.20134
H     6.24229  -1.53828 -19.44705
H     4.44616  -6.26848 -22.04611
H     5.12170  -8.23457 -19.60790
H     6.11492 -10.47814 -19.71532
H     7.65918 -11.26470 -17.91173
H     8.16276  -9.74848 -15.98796
H     7.16356  -7.49895 -15.88159
H     8.25458  -6.29325 -17.64239
H     9.76820  -4.39473 -17.27427
H     8.85433  -2.09782 -16.90621
H     6.37898  -1.74550 -16.96633
H     4.86493  -3.63609 -17.37009
H     4.33032  -7.40235 -16.10059
H     5.25941  -6.05236 -15.48060
H     3.25479  -4.72325 -16.95406
H     3.23847  -5.01346 -15.22922
H     1.87598  -6.96790 -15.41096
H     1.12247  -5.69980 -16.37603
H     0.99628  -7.93585 -17.42214
H     2.76053  -8.09734 -17.41977
