40
Generated by autodE on: 2022-06-01. E = -1366.397986 Ha
C     4.32350  -1.51257  -1.38998
N     3.00170  -1.32327  -0.82319
C     2.75177  -0.37462   0.08206
O     3.59869   0.41523   0.51292
C     1.31265  -0.27541   0.60184
C     1.37807  -0.49600   2.15205
C     2.03905  -1.75628   2.61976
O     0.90140   0.32473   2.90441
N     0.44134  -1.32766   0.07728
C    -0.67131  -0.82086  -0.28680
C    -1.77724  -1.66301  -0.85417
O    -2.79079  -1.17917  -1.31607
O    -1.52108  -2.96177  -0.79310
C    -2.52651  -3.83962  -1.32835
C    -0.79377   0.69061  -0.17921
C    -1.91130   1.12176   0.76918
F    -2.10003   0.21154   1.74605
F    -3.08619   1.27125   0.13328
F    -1.64963   2.29337   1.37083
C    -0.86239   1.35399  -1.61975
C    -0.82847   2.86182  -1.43138
C     0.43166   3.14068  -1.07598
C     1.14855   1.80157  -1.03740
O     0.46135   1.06649  -2.06589
C     0.65241   1.08110   0.26199
H     4.29151  -2.35709  -2.08836
H     5.06293  -1.72668  -0.60268
H     4.65341  -0.61289  -1.93239
H     2.23796  -1.93460  -1.09542
H     1.81011  -1.92982   3.67886
H     1.72971  -2.61335   2.00565
H     3.12973  -1.64273   2.50207
H    -2.14241  -4.85594  -1.18788
H    -3.47335  -3.70787  -0.78563
H    -2.68241  -3.63175  -2.39654
H    -1.62230   0.92359  -2.27729
H    -1.69335   3.52144  -1.48866
H     0.86354   4.09235  -0.76682
H     2.23042   1.80082  -1.19512
H     0.68672   1.74567   1.12746
