24
Generated by autodE on: 2022-06-01. E = -721.577501 Ha
C    -3.65005   1.66929  -1.96161
N    -2.97975   0.72835  -1.09034
C    -1.65231   0.78351  -0.88524
O    -0.91361   1.62760  -1.41582
C    -1.09727  -0.24613   0.03550
N     0.20999  -0.17804   0.21687
C     1.36729  -0.08284   0.35393
C     2.79010  -0.15165   0.58604
O     3.26583  -0.99673   1.31540
O     3.43577   0.79235  -0.07977
C     4.87057   0.81762   0.07309
C    -1.83295  -1.29237   0.73592
C    -1.04503  -2.22390   1.62295
O    -3.05823  -1.41545   0.60880
H    -4.72226   1.43798  -1.97557
H    -3.26426   1.61160  -2.99258
H    -3.51842   2.70693  -1.61384
H    -3.48928  -0.00883  -0.60101
H     5.21673   1.65427  -0.54284
H     5.30328  -0.12838  -0.28070
H     5.13371   0.97853   1.12771
H    -1.72796  -2.95007   2.08106
H    -0.52193  -1.65961   2.41175
H    -0.27574  -2.75638   1.04076
