16
Generated by autodE on: 2022-06-01. E = -644.713703 Ha
F     2.33742   0.11442  -0.63002
C     1.47249  -0.10485   0.38435
F     1.54403  -1.42765   0.66107
F     1.94428   0.55284   1.45657
C     0.09125   0.29020   0.03332
C    -0.75092   1.10650   0.66990
C    -2.07883   0.96630  -0.11051
C    -2.61751  -0.45545   0.17653
C    -1.77396  -1.27638  -0.45501
C    -0.73463  -0.34234  -1.11620
O    -1.56658   0.78228  -1.44564
H    -0.59820   1.69257   1.57485
H    -2.78497   1.80056  -0.04694
H    -3.46944  -0.68404   0.81569
H    -1.74263  -2.36484  -0.48111
H    -0.17679  -0.72168  -1.97867
