12
Generated by autodE on: 2022-06-11. E = -567.273840 Ha
C    -3.40714  -0.46923   0.21169
C    -2.40843   0.09197  -0.75051
O    -2.68634   0.57150  -1.83554
C    -1.00682   0.04305  -0.32310
C     0.15169   0.00359   0.02548
C     1.55898  -0.03801   0.43794
F     2.37238  -0.18854  -0.61748
F     1.79308  -1.05707   1.27724
F     1.90785   1.09483   1.06460
H    -3.33604   0.06887   1.17142
H    -4.41899  -0.38006  -0.20452
H    -3.16649  -1.52577   0.41598
