28
Generated by autodE on: 2022-06-11. E = -724.755482 Ha
C     4.31129  -0.29411   0.01262
N     3.86039   1.08305   0.11173
C     2.61175   1.49932  -0.14166
O     2.18385   2.64689   0.00973
C     1.69597   0.49395  -0.71612
N     0.75441  -0.14369  -0.35059
C    -0.32000  -0.82072  -0.04518
C    -0.11586  -2.24241   0.29367
C     1.29705  -2.77098   0.20792
O    -1.04650  -2.96944   0.63752
C    -1.60506  -0.09089  -0.03308
C    -2.84617  -0.75887  -0.04535
C    -4.03971  -0.03391  -0.05514
C    -4.02688   1.36366  -0.05483
C    -2.80017   2.03652  -0.04362
C    -1.60376   1.32127  -0.02946
H     4.13928  -0.85435   0.94555
H     5.38507  -0.30832  -0.21435
H     3.78410  -0.80661  -0.80554
H     4.47702   1.77623   0.53059
H     1.29238  -3.83938   0.45707
H     1.95957  -2.23371   0.90515
H     1.70844  -2.62858  -0.80418
H    -2.86920  -1.84574  -0.04794
H    -4.99063  -0.57221  -0.06730
H    -4.96392   1.92514  -0.06097
H    -2.77286   3.12880  -0.03852
H    -0.65765   1.86606  -0.00615
