40
Generated by autodE on: 2022-06-11. E = -1292.033829 Ha. Imaginary frequency = -240.9 cm-1
C     5.07846  -1.72653   1.06001
N     3.66796  -1.39709   0.94845
C     3.11317  -1.09895  -0.23042
O     3.68885  -1.06680  -1.31794
C     1.68000  -0.71400  -0.17536
N     0.63624  -1.07845  -0.64374
C    -0.63534  -0.84699  -0.91802
C    -0.88774  -0.26645  -2.27263
C     0.32156   0.13221  -3.08101
O    -2.02558  -0.08798  -2.68606
C    -1.65164  -1.45128  -0.02699
C    -2.96653  -1.71822  -0.44985
C    -3.89341  -2.26770   0.43859
C    -3.53117  -2.55823   1.75627
C    -2.22432  -2.29730   2.18438
C    -1.29366  -1.75225   1.30299
C    -0.26330   1.40649   0.16049
C    -1.50310   2.14487  -0.09007
F    -1.58245   2.54305  -1.37555
F    -2.60571   1.42161   0.17080
F    -1.58456   3.25928   0.66633
C     0.88378   1.31027   0.61632
C     2.10749   1.57684   1.36451
C     3.16088   2.36253   0.63878
O     2.23810   1.15942   2.50753
H     5.34031  -2.53686   0.36461
H     5.28237  -2.05450   2.08575
H     5.70924  -0.85328   0.82842
H     3.11569  -1.25857   1.79170
H     0.99791  -0.72170  -3.23674
H    -0.01329   0.52840  -4.04738
H     0.89732   0.90503  -2.54687
H    -3.26197  -1.48596  -1.46937
H    -4.91007  -2.46985   0.09336
H    -4.26120  -2.98615   2.44715
H    -1.92874  -2.51745   3.21272
H    -0.28183  -1.54346   1.65489
H     3.39518   1.87832  -0.32307
H     4.06397   2.43775   1.25863
H     2.77125   3.36806   0.40953
