54
Generated by autodE on: 2022-06-06. E = -2184.986528 Ha
C    -3.28871  -2.83157   0.79360
O    -2.49841  -1.66685   1.07198
C    -1.88182  -1.10251   0.03971
O    -2.00698  -1.48892  -1.10237
C    -1.07907   0.16206   0.47520
C    -1.93458   1.38869   0.09715
C    -2.80729   1.39289  -1.00172
C    -3.54870   2.53464  -1.31987
C    -3.43720   3.68891  -0.54273
C    -2.57765   3.69116   0.56009
C    -1.83604   2.55274   0.87689
N    -0.74420   0.16572   1.88384
C    -1.69930   0.22596   2.96681
C     0.58197  -0.28421   2.18771
C     1.37614   0.76706   2.87703
N     1.92088   1.56459   3.52012
C     1.17639  -0.74497   0.82614
Cl    0.58157  -2.51503   0.69917
C     2.68865  -0.79418   0.76820
C     3.36981  -1.37844   1.85124
C     4.76108  -1.46758   1.85501
C     5.49863  -0.97903   0.77196
C     4.83054  -0.40232  -0.30969
C     3.43611  -0.30915  -0.31409
C     0.37368   0.12795  -0.19218
Cl    1.09518   1.82367   0.04075
C     0.43715  -0.16082  -1.68347
C     1.00335  -1.32616  -2.22039
C     1.01734  -1.54322  -3.60084
C     0.46809  -0.60220  -4.47270
C    -0.07639   0.57473  -3.95023
C    -0.08212   0.79593  -2.57402
H    -4.07965  -2.59606   0.06756
H    -2.65087  -3.63398   0.39523
H    -3.72631  -3.13367   1.75169
H    -2.90747   0.50938  -1.62848
H    -4.21737   2.51492  -2.18349
H    -4.01906   4.57978  -0.79053
H    -2.48227   4.58500   1.18097
H    -1.16688   2.56698   1.73541
H    -2.66694   0.58493   2.59893
H    -1.85664  -0.76030   3.43857
H    -1.35159   0.92875   3.74414
H     0.58243  -1.13840   2.88753
H     2.81383  -1.78442   2.69817
H     5.26947  -1.92357   2.70728
H     6.58873  -1.04918   0.77222
H     5.39379  -0.01653  -1.16221
H     2.94611   0.15652  -1.16476
H     1.44016  -2.08173  -1.57460
H     1.46655  -2.45934  -3.99074
H     0.47729  -0.77598  -5.55114
H    -0.49271   1.33324  -4.61696
H    -0.47873   1.73443  -2.19285
