54
Generated by autodE on: 2022-06-06. E = -2184.920744 Ha. Imaginary frequency = -250.3 cm-1
C    -2.33896  -2.78482  -1.13136
O    -1.93108  -1.48304  -0.69921
C    -1.75202  -1.29743   0.60430
O    -1.92349  -2.16909   1.43650
C    -1.37989   0.12172   0.93878
C    -2.30977   1.15478   0.41811
C    -3.57738   0.77808  -0.08007
C    -4.45567   1.72003  -0.61275
C    -4.09743   3.06960  -0.66695
C    -2.85480   3.46534  -0.16549
C    -1.97781   2.52665   0.37570
N    -0.69453   0.30642   2.11319
C    -0.85013   1.50776   2.95194
C     0.32102  -0.58203   2.42823
C     1.16528  -0.22030   3.51677
N     1.90226   0.06047   4.37404
C     1.42307  -0.84787   0.56437
Cl    1.00336  -2.58186   0.23909
C     2.87540  -0.77907   0.93161
C     3.38966  -1.55844   1.98345
C     4.75343  -1.55923   2.27390
C     5.63693  -0.79017   1.50955
C     5.14358  -0.03760   0.44067
C     3.77782  -0.03730   0.14852
C     0.75125   0.09786  -0.26929
Cl    1.22286   1.76367   0.20174
C     0.36383  -0.01582  -1.69134
C     0.80721  -1.07905  -2.50343
C     0.40757  -1.17887  -3.83776
C    -0.42705  -0.21257  -4.40409
C    -0.83646   0.87450  -3.62338
C    -0.44139   0.97559  -2.29212
H    -3.32030  -3.04128  -0.70636
H    -2.39777  -2.73001  -2.22420
H    -1.59829  -3.53780  -0.82820
H    -3.89798  -0.26222  -0.04372
H    -5.42932   1.39359  -0.98466
H    -4.78327   3.80693  -1.09010
H    -2.55907   4.51630  -0.19573
H    -1.01435   2.87091   0.73705
H    -0.80625   1.20170   4.00390
H    -1.82994   1.95475   2.76860
H    -0.06227   2.24657   2.75850
H     0.08291  -1.64448   2.38305
H     2.72153  -2.18902   2.57069
H     5.12767  -2.16775   3.10037
H     6.70542  -0.78984   1.73715
H     5.82555   0.54649  -0.18172
H     3.41538   0.53607  -0.70379
H     1.47572  -1.83407  -2.09785
H     0.76572  -2.01698  -4.44043
H    -0.74045  -0.29413  -5.44738
H    -1.47057   1.65295  -4.05428
H    -0.76219   1.83563  -1.70928
