52
Generated by autodE on: 2022-06-10. E = -8835.176655 Ha
C    -0.86038  -4.43662   6.21260
C    -1.32463  -3.03953   5.94052
O    -2.47321  -2.78551   5.61758
C    -0.27010  -1.89571   5.99201
C     0.84120  -2.11021   7.03044
N     0.30919  -1.84554   4.64065
C     0.09032  -0.52587   4.02339
C     1.56068  -0.01034   4.10191
C     2.56470  -0.54597   3.11201
O     1.91890   0.67184   5.04446
C    -0.53691  -0.68702   2.63677
C    -0.04568  -0.07615   1.47615
C    -0.67126  -0.27776   0.24218
C    -1.80248  -1.09070   0.14790
C    -2.30401  -1.70300   1.30028
C    -1.67596  -1.50248   2.52903
C    -0.79699   0.23131   5.04301
C    -0.98288  -0.54554   6.13856
C    -1.76919  -0.30479   7.41148
Br   -0.55348   0.72148   8.72936
C    -1.96926  -1.53312   8.18962
N    -2.19220  -2.46446   8.84488
C    -3.18377   0.34016   7.26793
C    -3.35725   1.81612   7.60000
C    -2.86508   2.83143   6.57362
C    -1.50235   2.63189   5.90431
C    -1.32919   1.61914   4.74410
Br   -0.12165   2.58451   3.45124
Br   -3.05151   1.38072   3.71631
H    -0.61297  -4.53034   7.28238
H     0.05863  -4.66261   5.64960
H    -1.65425  -5.14892   5.95499
H     1.53567  -1.26060   6.99046
H     0.46342  -2.21095   8.05588
H     1.40138  -3.02134   6.78142
H     0.00597  -2.60322   4.03465
H     3.47053  -0.83817   3.66269
H     2.84905   0.26869   2.42650
H     2.19227  -1.38925   2.51927
H     0.82567   0.57251   1.51473
H    -0.26663   0.20756  -0.64902
H    -2.29097  -1.24586  -0.81706
H    -3.19404  -2.33421   1.24606
H    -2.09674  -1.96648   3.42131
H    -3.51392   0.11463   6.24318
H    -3.84923  -0.22149   7.93546
H    -2.89638   2.00884   8.57949
H    -4.43673   1.97943   7.74334
H    -2.81015   3.81023   7.07526
H    -3.61671   2.94929   5.78047
H    -1.24523   3.61167   5.49054
H    -0.71354   2.39848   6.63417
