31
Generated by autodE on: 2022-06-10. E = -709.950893 Ha
C    -4.14233  -1.56944   0.17796
C    -3.19537  -0.45975  -0.19221
O    -3.59683   0.54957  -0.79209
C    -1.78139  -0.59035   0.17194
C    -1.21675  -1.74101   0.93251
N    -1.06031   0.46333  -0.20855
C     0.23170   0.83142  -0.17042
C     0.43302   2.20884  -0.61166
C     1.83335   2.75724  -0.70224
O    -0.54336   2.91437  -0.92032
C     1.32950  -0.10057   0.15172
C     1.50363  -1.27638  -0.60293
C     2.55514  -2.15100  -0.32340
C     3.45437  -1.86280   0.70819
C     3.29727  -0.69148   1.45698
C     2.24458   0.18290   1.18134
H    -5.13204  -1.35868  -0.24681
H    -4.22901  -1.65327   1.27379
H    -3.77720  -2.54030  -0.19229
H    -2.01209  -2.26671   1.47483
H    -0.71767  -2.47519   0.27679
H    -0.46936  -1.40146   1.66342
H    -1.65430   1.21021  -0.61834
H     2.19641   3.02478   0.30362
H     1.82123   3.66518  -1.31992
H     2.53822   2.02370  -1.11835
H     0.81329  -1.49713  -1.41953
H     2.67609  -3.05949  -0.91813
H     4.27716  -2.54758   0.92640
H     3.99457  -0.46096   2.26588
H     2.11684   1.08819   1.77785
