21
Generated by autodE on: 2022-06-10. E = -8125.170754 Ha
N    -2.96600   2.19144  -2.74639
C    -2.28884   1.32987  -2.36677
C    -1.47134   0.22729  -1.86546
Br   -0.47059  -0.46695  -3.48979
C    -0.49689   0.61374  -0.86804
C     0.16728   0.48202   0.13726
C     0.63283  -0.12364   1.35359
Br    2.60323   0.03407   1.52955
Br   -0.20834   0.82666   2.89391
C     0.21763  -1.60735   1.34800
C    -1.24770  -1.88625   0.95322
C    -1.58497  -2.04136  -0.55644
C    -2.34773  -0.90659  -1.26413
H     0.88861  -2.12005   0.64068
H     0.42980  -2.01369   2.34741
H    -1.49709  -2.84168   1.43757
H    -1.91214  -1.14080   1.41975
H    -2.23658  -2.92234  -0.64950
H    -0.67561  -2.29210  -1.12666
H    -2.96375  -1.30598  -2.08268
H    -3.03360  -0.41376  -0.55537
