23
Generated by autodE on: 2022-06-01. E = -605.333759 Ha
C     3.05710  -0.26493  -0.15894
N     2.22889   0.37851  -1.16211
C     0.90603   0.23043  -1.30542
O     0.19439   0.94970  -2.01099
C     0.26384  -0.98408  -0.66591
C     0.63029  -2.32824  -1.19870
N    -0.71170  -0.83166   0.19481
C    -1.53173  -2.00321   0.56172
C    -0.98873   0.38237   0.86711
C     0.02349   1.32666   1.08830
N     0.86621   2.11265   1.29870
C    -2.28225   0.64965   1.34141
N    -3.34889   0.90281   1.75511
H     2.47481  -1.01094   0.39652
H     3.42358   0.47814   0.56599
H     3.91974  -0.76603  -0.62214
H     2.62587   1.17268  -1.66151
H    -0.16605  -2.70649  -1.86331
H     1.55773  -2.26759  -1.78053
H     0.76089  -3.06131  -0.38770
H    -2.39248  -1.67199   1.14872
H    -1.87780  -2.51108  -0.34515
H    -0.92503  -2.69210   1.16498
