19
Generated by autodE on: 2022-06-01. E = -995.131161 Ha
C     3.73518   0.75472  -0.40877
O     2.36144   0.50968  -0.73486
C     1.58732   0.01861   0.24936
O     2.00183  -0.22100   1.36952
C     0.21401  -0.17483  -0.20912
C    -0.89796  -0.44182   0.50227
Cl   -1.12195  -0.67437   2.17704
C    -2.07237  -0.37405  -0.50234
C    -2.22068   1.11344  -0.89669
C    -1.12948   1.38158  -1.61895
C    -0.32930   0.05987  -1.64261
O    -1.40803  -0.89674  -1.66026
H     4.23162  -0.17763  -0.10204
H     4.19794   1.14749  -1.32150
H     3.81385   1.49160   0.40407
H    -2.97433  -0.93290  -0.23323
H    -3.03209   1.76577  -0.57736
H    -0.79787   2.31945  -2.06262
H     0.38047  -0.09575  -2.45998
