42
Generated by autodE on: 2022-06-01. E = -1600.455072 Ha. Imaginary frequency = -329.5 cm-1
C    -1.15755   4.43059   0.98066
N    -1.03178   3.10561   0.40165
C    -1.31545   2.87732  -0.88777
O    -1.61169   3.77855  -1.67704
C    -1.21381   1.44699  -1.41586
C    -0.59856   1.43423  -2.79417
C     0.48988   0.25523  -0.52164
C     0.51384   0.15823   1.02071
O    -0.55841  -0.77155   1.25370
C    -0.04421  -1.80547   0.40603
C     1.37016  -1.95022   1.00793
Cl    2.24332  -3.41513   0.97201
C     1.73281  -0.71482   1.40417
C     3.01296  -0.23448   1.92046
O     3.94707  -0.93386   2.26834
O     3.03762   1.10960   1.96320
C     4.24239   1.71734   2.44661
C     0.14534  -1.03540  -0.90905
C    -2.18338  -0.72573  -1.54107
C    -2.85319  -1.71664  -0.77496
N    -3.34757  -2.57441  -0.15785
C    -2.04171  -1.07473  -2.91403
N    -1.94971  -1.44506  -4.01630
N    -2.22313   0.59715  -1.09360
C    -3.09305   0.86662   0.06646
H    -0.60361   5.16466   0.37811
H    -2.21139   4.75128   1.02874
H    -0.74310   4.41371   1.99576
H    -0.89114   2.31892   1.02415
H     0.24207   2.13886  -2.81786
H    -0.22775   0.45402  -3.10036
H    -1.34727   1.77273  -3.52815
H     1.19105   0.89733  -1.05202
H     0.40927   1.06956   1.61393
H    -0.66540  -2.70568   0.40578
H     5.09669   1.43945   1.81219
H     4.07381   2.79950   2.40247
H     4.44232   1.40565   3.48227
H     0.39245  -1.53149  -1.84590
H    -4.02810   0.31124  -0.06173
H    -2.60354   0.55358   0.99778
H    -3.34049   1.93108   0.10378
