24
Generated by autodE on: 2022-06-16. E = -667.337583 Ha
C    -1.85404  -0.89469   1.61086
C    -0.92410  -0.52698   0.49486
O    -0.65089  -1.62566  -0.41238
N     0.12159  -0.94130  -1.36305
O    -0.78052   0.19399  -1.68222
C    -1.46511   0.46389  -0.53710
O    -2.29173   1.33004  -0.44756
C     1.24700  -0.35978  -0.52111
C     2.26918  -1.47813  -0.35037
C     1.87377   0.84287  -1.21428
C     0.51538  -0.06875   0.84629
C     0.64986   1.34614   1.34273
O     1.34731   1.64432   2.28945
H    -1.38047  -1.63386   2.27169
H    -2.79282  -1.30316   1.21082
H    -2.08269   0.00844   2.19557
H     1.80261  -2.38109   0.06687
H     2.73403  -1.72507  -1.31616
H     3.05435  -1.14038   0.34166
H     2.72717   1.19294  -0.61578
H     2.24929   0.54702  -2.20497
H     1.17352   1.67746  -1.34137
H     0.90678  -0.73189   1.62842
H     0.08165   2.13120   0.79365
