14
Generated by autodE on: 2022-06-16. E = -270.687344 Ha
C    -1.35665   1.40250   0.06953
C    -0.97727  -0.04782   0.03630
C    -2.13326  -1.00084   0.06754
C     0.29613  -0.51967  -0.01793
C     1.50103   0.29034  -0.05340
O     2.63377  -0.18346  -0.10144
H    -1.95158   1.60533   0.97621
H    -0.50630   2.09369   0.04792
H    -2.01513   1.62877  -0.78632
H    -2.73821  -0.83269   0.97539
H    -2.80441  -0.80995  -0.78779
H    -1.81071  -2.05074   0.04176
H     0.46680  -1.60136  -0.03784
H     1.36904   1.39535  -0.03500
