10
Generated by autodE on: 2022-06-16. E = -396.601774 Ha
C    -2.21894  -0.26103   0.05228
C    -0.74671  -0.24663   0.00654
O    -0.04553  -1.36376  -0.08294
N     1.26652  -1.17122  -0.11069
O     1.41695   0.15293  -0.03314
C     0.18043   0.83239   0.04562
O     0.10184   2.04047   0.12223
H    -2.62677   0.37289  -0.75148
H    -2.57449   0.14948   1.01176
H    -2.59538  -1.28533  -0.06444
