24
Generated by autodE on: 2022-06-16. E = -667.281693 Ha. Imaginary frequency = -346.3 cm-1
C    -1.80489  -1.22390   1.56640
C    -1.15922  -0.78411   0.31989
O    -0.54856  -1.63036  -0.49458
N     0.03237  -0.93189  -1.52688
O    -0.72196   0.22618  -1.61005
C    -1.44570   0.41748  -0.44779
O    -2.12944   1.39109  -0.23321
C     1.65751  -0.18572  -0.35975
C     2.46711  -1.45402  -0.39162
C     2.10851   0.89995  -1.30048
C     0.95744   0.10542   0.83457
C     0.59025   1.43939   1.28473
O     0.17761   1.67860   2.41639
H    -1.32595  -2.13206   1.95378
H    -2.87800  -1.41254   1.39390
H    -1.71919  -0.41210   2.30516
H     1.97317  -2.26184   0.16701
H     2.65289  -1.78509  -1.42340
H     3.44606  -1.26587   0.08262
H     3.05328   1.32892  -0.92565
H     1.38170   1.71551  -1.39857
H     2.30687   0.48280  -2.29827
H     0.96008  -0.64886   1.62611
H     0.67965   2.26368   0.54369
