33
Generated by autodE on: 2022-06-17. E = -690.311941 Ha
C     3.43964   0.67804  -1.68276
N     2.13181   0.67655  -1.06013
C     1.85166   0.05170   0.08600
O     2.64731  -0.58244   0.78352
C     0.36621   0.11997   0.49642
C     0.30203   0.41390   1.94656
N     0.21386   0.67893   3.07246
O    -0.32743   1.12909  -0.20375
C    -1.61679   0.64705  -0.72464
C    -1.49075   0.58640  -2.24378
C    -2.67840   1.64821  -0.29643
C    -1.79353  -0.73074  -0.04758
C    -2.69250  -1.71670  -0.78081
C    -0.35294  -1.21839   0.15162
C    -0.16721  -2.34578   1.15345
H     3.38778   0.25564  -2.69784
H     4.12244   0.06893  -1.07852
H     3.84076   1.70102  -1.75112
H     1.36130   1.17968  -1.49361
H    -1.17807   1.57073  -2.62420
H    -2.45573   0.33381  -2.70664
H    -0.74634  -0.15882  -2.55982
H    -2.68528   1.75631   0.79857
H    -2.49123   2.63452  -0.74837
H    -3.67298   1.30548  -0.62056
H    -2.21892  -0.54575   0.95421
H    -3.68619  -1.28081  -0.96821
H    -2.26133  -2.01904  -1.74714
H    -2.83729  -2.62583  -0.17788
H     0.05229  -1.53054  -0.82441
H    -0.65556  -3.26027   0.78562
H    -0.61011  -2.09221   2.12926
H     0.89944  -2.56667   1.30413
