12
Generated by autodE on: 2022-06-17. E = -157.300303 Ha
C    -1.95424  -0.11721   0.15783
C    -0.48723  -0.05081   0.45685
C     0.48723   0.05086  -0.45684
C     1.95425   0.11717  -0.15783
H    -2.49871   0.71508   0.63842
H    -2.40211  -1.04580   0.55427
H    -2.15252  -0.07631  -0.92481
H    -0.20652  -0.08896   1.51878
H     0.20652   0.08902  -1.51878
H     2.40226   1.04551  -0.55468
H     2.49859  -0.71542  -0.63805
H     2.15251   0.07670   0.92482
