21
Generated by autodE on: 2022-07-27. E = -532.914573 Ha
C     2.83488  -0.91358  -2.01003
N     1.57140  -0.54978  -1.40549
C     1.45745  -0.36378  -0.06641
O     2.43060  -0.51743   0.70109
C     0.15462   0.01540   0.45330
C    -0.01494   0.27711   1.81659
N    -0.08647   0.49034   2.96797
O    -0.83112   0.17817  -0.49301
C    -2.08472   0.41643  -0.44014
C    -2.76559   0.51894  -1.74895
C    -2.80873   0.56804   0.83841
H     3.22247  -1.86100  -1.60149
H     3.60594  -0.14160  -1.84886
H     2.68727  -1.03601  -3.09039
H     0.76286  -0.40068  -1.99703
H    -3.24838   1.50844  -1.83195
H    -3.57783  -0.22726  -1.79750
H    -2.06483   0.37130  -2.57999
H    -2.64091  -0.31675   1.47525
H    -2.43508   1.44462   1.39359
H    -3.88218   0.69088   0.65228
