33
Generated by autodE on: 2022-06-17. E = -690.215380 Ha. Imaginary frequency = -315.5 cm-1
C     3.24010  -0.32651  -2.03614
N     2.02698   0.19239  -1.43933
C     1.87434   0.25882  -0.09398
O     2.80137  -0.01603   0.69213
C     0.56040   0.65630   0.40659
C     0.43869   1.00720   1.75821
N     0.38139   1.25936   2.90167
O    -0.36573   0.97395  -0.54109
C    -1.67419   0.80494  -0.46542
C    -2.36356   1.13744  -1.74587
C    -2.42010   1.06949   0.80166
C    -1.59189  -1.48747  -0.42821
C    -1.20957  -1.79838  -1.85259
C    -0.71510  -1.71518   0.60656
C    -1.10954  -1.84519   2.04044
H     3.38438  -1.39933  -1.82040
H     4.12337   0.21255  -1.66195
H     3.18516  -0.19421  -3.12410
H     1.20711   0.32366  -2.02094
H    -2.64851   2.20508  -1.72937
H    -3.29002   0.55494  -1.84470
H    -1.71226   0.96234  -2.61113
H    -1.99832   0.57788   1.68082
H    -2.40812   2.16026   0.98178
H    -3.46553   0.75854   0.67899
H    -2.66162  -1.48159  -0.18986
H    -1.86623  -1.30856  -2.58384
H    -0.17160  -1.50032  -2.06048
H    -1.28271  -2.88467  -2.03577
H     0.31339  -1.99657   0.36173
H    -0.88948  -2.86957   2.39100
H    -2.18241  -1.65729   2.19175
H    -0.53822  -1.16793   2.69822
