31
Generated by autodE on: 2022-10-21. E = -929.677465 Ha
C     3.63399  -0.82011   2.23827
N     2.95257  -1.11387   0.99249
C     1.90985  -0.37262   0.57601
O     1.44605   0.55445   1.25474
C     1.37343  -0.69559  -0.77452
C     2.18292  -1.43281  -1.66472
N     2.89894  -2.06256  -2.34069
N     0.21677  -0.13877  -1.23347
C     0.08290   0.01560  -2.70273
C    -0.77800   0.26733  -0.43076
C    -1.76427   1.25305  -0.92587
O    -1.50594   2.15817  -1.69904
O    -2.98119   1.03687  -0.42071
C    -3.99774   1.99271  -0.75605
C    -0.93281  -0.32654   0.92487
O    -0.66379  -1.48343   1.18951
O    -1.44888   0.53364   1.79705
C    -1.66844   0.04473   3.12863
H     4.34214  -1.62938   2.45209
H     2.91141  -0.74761   3.06460
H     4.18765   0.13160   2.18513
H     3.32240  -1.84721   0.39586
H    -0.97256   0.06362  -2.97751
H     0.61093   0.92265  -3.02036
H     0.53433  -0.86012  -3.18057
H    -3.69955   2.99944  -0.42932
H    -4.17701   1.99755  -1.84082
H    -4.89955   1.67103  -0.22302
H    -2.09807   0.88282   3.68869
H    -0.71410  -0.26636   3.57724
H    -2.36592  -0.80489   3.11754
