39
Generated by autodE on: 2022-10-21. E = -1220.838568 Ha. Imaginary frequency = -332.0 cm-1
C     3.63612   1.92456   1.00623
N     3.13280   0.77449   0.27965
C     1.89115   0.80096  -0.25701
O     1.21253   1.83438  -0.26467
C     1.42423  -0.47287  -0.86563
C     2.43087  -1.41192  -1.20656
N     3.30472  -2.15371  -1.42488
C     0.72210  -1.03447   1.62917
O     1.92350  -1.39327   1.97355
C     2.42671  -0.80966   3.20275
C    -0.42695  -0.61536   1.44510
F    -1.65981  -0.55427   1.91562
C    -0.93970  -0.12791  -0.72452
C    -1.08869   1.38312  -0.75710
O    -1.09695   1.98219  -1.81224
O    -1.41918   1.90935   0.41541
C    -1.69403   3.31565   0.42369
C    -2.26218  -0.82676  -0.74379
O    -2.43067  -2.02920  -0.69486
O    -3.26440   0.05602  -0.72007
C    -4.58744  -0.46943  -0.53920
N     0.14443  -0.74620  -1.26443
C    -0.02087  -2.01456  -2.01391
H     4.64879   1.69960   1.36188
H     3.67644   2.80939   0.35402
H     2.99846   2.17024   1.87202
H     3.57650  -0.12173   0.45342
H     3.47262  -1.12819   3.28048
H     1.84290  -1.18810   4.05443
H     2.36004   0.28600   3.15167
H    -0.79871   3.87728   0.12006
H    -2.52591   3.55037  -0.25600
H    -1.96506   3.56417   1.45618
H    -4.64662  -1.02207   0.40963
H    -5.25460   0.39944  -0.51814
H    -4.85256  -1.13594  -1.37193
H    -0.97196  -2.00577  -2.54692
H     0.02145  -2.87076  -1.32865
H     0.78961  -2.08016  -2.74732
