36
Generated by autodE on: 2022-05-30. E = -1906.542671 Ha
C    -0.18126   3.64707   2.11184
N     0.31851   2.42467   1.51063
C    -0.50925   1.43693   1.17399
O    -1.73126   1.48354   1.31840
C     0.11932   0.12729   0.62940
Cl    0.76723  -0.75222   2.09851
C     1.25969   0.08826  -0.39037
C     2.49420   0.94963  -0.32334
O     2.82928   1.55161   0.67975
O     3.16529   0.94832  -1.45525
C     4.38576   1.71429  -1.48778
N     1.19838  -0.85493  -1.24747
C    -0.03597  -1.63738  -1.05743
C    -0.66016  -2.01535  -2.40419
C     0.35065  -2.88631  -0.36928
N     0.68585  -3.89473   0.09334
C    -0.94007  -0.72785  -0.13608
Cl   -2.00601  -1.70284   0.92217
C    -1.73835   0.24047  -1.04839
O    -1.11180   1.14802  -1.60363
N    -3.03132  -0.00134  -1.25170
C    -3.82227   0.84529  -2.12695
H    -0.56930   3.46733   3.12785
H     0.63914   4.37258   2.16781
H    -0.99535   4.07061   1.50564
H     1.32460   2.27292   1.42949
H     5.10103   1.31143  -0.75734
H     4.77394   1.60952  -2.50639
H     4.17383   2.76810  -1.25964
H    -1.61178  -2.53951  -2.24441
H    -0.82848  -1.11146  -3.00289
H     0.02626  -2.67691  -2.94896
H    -3.48449  -0.74573  -0.73219
H    -3.40498   0.85230  -3.14530
H    -4.84608   0.45525  -2.16150
H    -3.84372   1.88198  -1.75607
