16
Generated by autodE on: 2022-05-30. E = -492.339073 Ha
C     3.68662   0.97562   0.00397
O     2.31286   0.93853   0.43668
C     1.68238  -0.22556   0.30893
O     2.16067  -1.25542  -0.12030
C     0.32392  -0.15390   0.84847
N    -0.75630   0.02967   0.34115
C    -1.95125   0.25809  -0.08896
C    -2.55453   1.63650  -0.07356
C    -2.69756  -0.84629  -0.59334
N    -3.34217  -1.72182  -1.01380
H     4.03205   1.99649   0.20091
H     4.28482   0.25160   0.57507
H     3.75540   0.74993  -1.06950
H    -2.79157   1.96470  -1.09812
H    -3.48901   1.63784   0.50967
H    -1.84951   2.34855   0.37517
