36
Generated by autodE on: 2022-05-30. E = -1906.452076 Ha. Imaginary frequency = -348.5 cm-1
C     0.47087   3.93393   0.40954
N    -0.05306   2.58297   0.37784
C     0.49489   1.63030   1.13426
O     1.39522   1.85016   1.94799
C     0.00306   0.17632   0.93768
Cl    0.78473  -0.87171   2.13354
C     1.35027  -0.20599  -0.63698
C     2.71713   0.32785  -0.43544
O     3.56221  -0.27562   0.18351
O     2.81016   1.54995  -0.92935
C     4.02382   2.27597  -0.64309
N     0.82900  -1.00589  -1.38350
C    -0.25322  -1.71843  -1.63721
C    -1.11261  -1.43612  -2.82948
C    -0.35526  -2.97738  -0.97970
N    -0.49573  -3.99573  -0.43209
C    -1.25951  -0.28828   0.49022
Cl   -2.04168  -1.60400   1.36504
C    -2.10060   0.38054  -0.53186
O    -1.62651   1.25463  -1.29181
N    -3.38222  -0.00187  -0.65267
C    -4.23807   0.54218  -1.68935
H    -0.15886   4.57074  -0.22436
H     1.50787   3.97490   0.03518
H     0.46490   4.33610   1.43343
H    -0.68044   2.28183  -0.38062
H     4.89526   1.72582  -1.02300
H     4.11030   2.42307   0.44231
H     3.92103   3.23780  -1.15598
H    -0.74754  -1.99962  -3.70460
H    -1.09916  -0.36327  -3.05638
H    -2.14137  -1.75972  -2.61978
H    -3.73725  -0.74109  -0.05709
H    -5.25464   0.15941  -1.53894
H    -4.25927   1.64123  -1.64301
H    -3.89339   0.24909  -2.69385
