20
Generated by autodE on: 2022-06-25. E = -457.715343 Ha
C    -3.16363  -0.26015   0.12404
N    -1.80372   0.24804   0.20010
C    -1.55291   1.44942   0.87458
C    -0.31314   1.92427   1.07363
C     0.92891   1.21369   0.59485
C     0.56152  -0.09150  -0.09245
C     1.59609  -0.98602  -0.63676
N     2.87928  -0.57221  -0.48540
O     1.34214  -2.06516  -1.20970
C    -0.73700  -0.47919  -0.23655
H    -3.53395  -0.57792   1.11374
H    -3.19243  -1.12276  -0.55363
H    -3.84208   0.51359  -0.26659
H    -2.44384   1.97460   1.22364
H    -0.19896   2.87354   1.60200
H     1.61540   1.03337   1.44727
H     1.50441   1.87219  -0.08797
H     3.62526  -1.16235  -0.83677
H     3.12413   0.29017  -0.01616
H    -0.97176  -1.42236  -0.73238
