32
Generated by autodE on: 2022-06-25. E = -823.056122 Ha
C     4.77994   1.18323  -1.22117
O     3.56444   1.13060  -0.45289
C     3.22036  -0.06433   0.04152
O     3.84908  -1.09324  -0.11677
C     2.03953   0.04301   0.90466
N     0.87104  -0.06088   0.56297
C    -0.38790  -0.09028   0.30341
C    -1.09244  -1.39086   0.37215
C    -2.21017  -1.65808  -0.44007
C    -2.84545  -2.89977  -0.37970
C    -2.37825  -3.89215   0.48743
C    -1.26228  -3.63734   1.29253
C    -0.62274  -2.39979   1.23456
C    -1.03966   1.19219  -0.05054
C    -0.28485   2.22475  -0.64126
C    -0.87623   3.45089  -0.94347
C    -2.22941   3.66920  -0.66248
C    -2.98456   2.65260  -0.06935
C    -2.39808   1.42339   0.23640
H     4.69882   0.54715  -2.11409
H     4.90312   2.23219  -1.51338
H     5.63292   0.85501  -0.61013
H    -2.57474  -0.90011  -1.13414
H    -3.70858  -3.09408  -1.02056
H    -2.87915  -4.86180   0.53355
H    -0.88922  -4.40693   1.97225
H     0.24773  -2.20770   1.86554
H     0.77024   2.05949  -0.86944
H    -0.27812   4.23880  -1.40703
H    -2.69300   4.62855  -0.90342
H    -4.03864   2.81839   0.16494
H    -2.99393   0.64786   0.71858
