12
Generated by autodE on: 2022-05-28. E = -360.724147 Ha
C    -2.98642  -0.23895   0.40239
N    -1.95403  -0.21158  -0.20510
C    -0.78469  -0.29098  -0.76224
C     0.38762   0.04688   0.02973
O     0.37833   0.39313   1.20225
O     1.51569  -0.07303  -0.69925
C     2.74194   0.23184  -0.02737
H    -3.73800   0.54859   0.53785
H    -0.70679  -0.61346  -1.80156
H     2.74369   1.27252   0.32975
H     3.53794   0.08821  -0.76781
H     2.89730  -0.44326   0.82749
