37
Generated by autodE on: 2022-05-30. E = -3358.363968 Ha
C     3.63650   1.05556  -2.57844
N     2.67699   1.17659  -1.49879
C     2.11233   0.09913  -0.93319
O     2.40118  -1.05866  -1.24135
C     1.12672   0.37843   0.21641
C     1.94525   0.19512   1.50951
N     0.68159   1.78063   0.22147
C    -0.57709   1.83105   0.43496
C    -1.24489   3.10000   0.57950
N    -1.81942   4.10098   0.70882
C    -1.34796   0.53045   0.52003
C    -2.00859   0.38025   1.89018
C    -2.38721   0.35063  -0.64448
C    -1.88949   1.02879  -1.93278
C    -0.65675   0.16209  -2.31267
C    -0.66491  -0.98081  -1.26266
C    -2.17913  -1.12933  -1.01015
C    -0.18854  -0.47293   0.12136
Br   -0.10603  -2.07899   1.30965
H     3.97887   2.05767  -2.86379
H     4.50713   0.45713  -2.26842
H     3.18587   0.56932  -3.45896
H     2.34876   2.09117  -1.20488
H     2.41016  -0.79731   1.52750
H     2.73517   0.95873   1.53788
H     1.30563   0.31391   2.39437
H    -2.70302   1.21901   2.05288
H    -1.26738   0.37919   2.70169
H    -2.58426  -0.55355   1.94245
H    -3.39796   0.64488  -0.33442
H    -2.67321   0.96429  -2.70136
H    -1.64801   2.09398  -1.81513
H     0.27224   0.74250  -2.33153
H    -0.76971  -0.28264  -3.31140
H    -0.11847  -1.87106  -1.58753
H    -2.42600  -1.83201  -0.20456
H    -2.73127  -1.41656  -1.91707
