20
Generated by autodE on: 2022-05-30. E = -2885.785262 Ha
C     2.20689  -1.24968   0.08629
C     0.80346  -0.98518   0.49961
C     0.00527   0.07413   0.27623
Br    0.43258   1.63880  -0.71068
C    -1.41257  -0.25062   0.71079
C    -1.94120  -1.30405  -0.31435
C    -1.03856  -2.54042  -0.03093
C    -0.11227  -2.03907   1.12474
C    -1.09735  -1.15741   1.91883
H     2.24528  -2.09556  -0.62300
H     2.66193  -0.37374  -0.39828
H     2.82839  -1.53741   0.95137
H    -2.07225   0.61002   0.87452
H    -3.00126  -1.52558  -0.11867
H    -1.85887  -0.93653  -1.34733
H    -1.63369  -3.40271   0.30592
H    -0.45567  -2.85772  -0.90783
H     0.40939  -2.83714   1.66990
H    -0.61973  -0.61591   2.74850
H    -1.97710  -1.70831   2.28713
