17
Generated by autodE on: 2022-05-30. E = -472.480850 Ha
C    -3.63839  -0.51893  -0.24254
N    -2.49018   0.27571   0.14870
C    -1.24197  -0.08715  -0.19586
O    -0.98645  -1.10669  -0.84482
C    -0.14939   0.84298   0.26054
C    -0.40049   2.10863   1.02553
N     1.03062   0.47950  -0.05680
C     2.09525   0.10538  -0.53558
C     3.06474  -0.73474   0.02430
N     3.96153  -1.41258   0.34707
H    -3.74130  -0.56053  -1.33884
H    -4.54264  -0.06674   0.18152
H    -3.54767  -1.55173   0.12817
H    -2.64341   1.13396   0.66650
H     0.54262   2.63031   1.23084
H    -0.89797   1.88724   1.98381
H    -1.05917   2.77925   0.44955
