37
Generated by autodE on: 2022-05-30. E = -3358.243744 Ha. Imaginary frequency = -342.5 cm-1
C     2.94400   1.30003  -3.02971
N     2.36001   1.47423  -1.71513
C     2.49946   0.53379  -0.75542
O     3.26002  -0.43574  -0.86874
C     1.70565   0.71516   0.49643
C     2.21804   0.07261   1.74206
N     0.82728   1.68266   0.56207
C    -0.36069   1.98854   0.50911
C    -0.99756   3.23126   0.65282
N    -1.67278   4.18015   0.73822
C    -1.57869   0.19132   0.34540
C    -2.28420   0.42675   1.65467
C    -2.34144   0.38564  -0.99010
C    -1.39963   0.87880  -2.11783
C    -0.47516  -0.34658  -2.36693
C    -0.98965  -1.37703  -1.33504
C    -2.51690  -1.10051  -1.40120
C    -0.72155  -0.87530   0.08827
Br   -0.24420  -2.16482   1.42069
H     2.84742   2.23792  -3.59055
H     4.00988   1.04475  -2.94469
H     2.44351   0.49503  -3.59583
H     1.64768   2.18796  -1.59892
H     2.37961  -0.99748   1.55122
H     3.18832   0.51289   2.03093
H     1.50820   0.18906   2.56988
H    -2.77218   1.41181   1.68794
H    -1.59494   0.34662   2.50764
H    -3.06818  -0.33983   1.79041
H    -3.25371   0.98557  -0.87159
H    -1.99322   1.12048  -3.01206
H    -0.84179   1.78513  -1.84495
H     0.58585  -0.12249  -2.23295
H    -0.60579  -0.74484  -3.38464
H    -0.65172  -2.40421  -1.51672
H    -3.08901  -1.68680  -0.66678
H    -2.95591  -1.23595  -2.40422
