22
Generated by autodE on: 2022-06-16. E = -550.122402 Ha. Imaginary frequency = -335.5 cm-1
C     3.38934   1.30355   0.07281
O     1.98045   1.04906   0.14211
C     1.61547  -0.23409   0.26276
O     2.38842  -1.17107   0.32353
N     0.23127  -0.27834   0.29671
N    -0.36476  -1.40508   0.32951
N    -1.46620  -1.75830   0.17419
C    -2.54448   0.05207  -0.22915
C    -3.34103   0.12176   1.04546
C    -1.53135   0.95221  -0.52023
C    -1.00588   1.17643  -1.90351
H     3.88993   0.95838   0.98910
H     3.83126   0.79918  -0.79884
H     3.49331   2.39010  -0.02768
H    -3.01333  -0.45463  -1.07935
H    -2.73205   0.51255   1.87562
H    -3.72920  -0.86614   1.33644
H    -4.21099   0.79044   0.92232
H    -1.27851   1.70474   0.23186
H     0.04755   1.49030  -1.89262
H    -1.10569   0.27423  -2.52596
H    -1.58256   1.98459  -2.38961
