41
Generated by autodE on: 2022-06-20. E = -1085.828014 Ha
C    -1.82065   2.12468  -3.53319
N    -1.20348   1.59505  -2.33479
C    -1.38894   0.34028  -1.91759
O    -2.14923  -0.47535  -2.45240
C    -0.57257  -0.08531  -0.68944
C    -1.54122  -0.68886   0.34041
O    -1.33980  -1.67615   1.01562
O    -2.59999   0.10343   0.49685
C    -3.50084  -0.21541   1.57114
N     0.11039   1.03653  -0.03389
C     1.33002   0.57866   0.62781
C     2.47360   1.38997   0.16129
N     3.36001   2.04495  -0.20144
C     1.21150   0.78518   2.18678
C     2.47723   0.85481   2.98336
O     0.11274   1.02679   2.64205
C     1.52423  -0.90881   0.16627
C     1.32122  -1.94482   1.24296
O     1.30695  -1.71072   2.43258
C     0.60506  -1.03297  -1.09194
C     1.35023  -0.44852  -2.30758
C     0.19059  -2.46288  -1.45154
H    -1.24723   1.86108  -4.43798
H    -1.87851   3.21848  -3.46117
H    -2.83524   1.71747  -3.63914
H    -0.49530   2.13085  -1.83870
H    -3.92214  -1.22060   1.43160
H    -2.96719  -0.16474   2.53101
H    -4.29338   0.54017   1.53279
H    -0.49038   1.51287   0.64042
H     3.26608   0.21653   2.56458
H     2.83267   1.89939   2.95656
H     2.27091   0.58486   4.02673
H     2.56858  -1.08517  -0.14412
H     1.28947  -2.99064   0.87172
H     1.63409   0.60360  -2.17571
H     0.72986  -0.52418  -3.21202
H     2.26673  -1.03110  -2.48001
H    -0.38420  -2.96184  -0.66523
H    -0.42413  -2.44145  -2.36155
H     1.08878  -3.06211  -1.66460
