14
Generated by autodE on: 2022-06-20. E = -270.683209 Ha
C    -1.00203  -1.14084  -0.46141
C    -0.83242   0.23501   0.11640
C    -2.09127   0.97142   0.44948
C     0.38142   0.81022   0.33738
C     1.67364   0.20289   0.05713
O     1.87281  -0.90932  -0.42634
H    -0.47844  -1.89289   0.14948
H    -2.06425  -1.41363  -0.53201
H    -0.55150  -1.20264  -1.46498
H    -1.90169   1.97201   0.86180
H    -2.68641   0.38807   1.17407
H    -2.72089   1.06471  -0.45292
H     0.41972   1.81721   0.76293
H     2.54662   0.84720   0.32313
