27
Generated by autodE on: 2022-07-27. E = -815.111229 Ha
C    -0.35511   1.25193  -3.98599
N    -0.70057   0.47755  -2.81136
C    -0.09494   0.70180  -1.63381
O     0.83102   1.51210  -1.49098
C    -0.60046  -0.05487  -0.45718
N     0.11126  -0.13469   0.66007
C     1.36907   0.11059   1.06377
C     2.47432   0.40782   0.23582
N     3.48999   0.57911  -0.31210
C     1.55989  -0.13214   2.51193
C     2.92823   0.05540   3.09068
O     0.58844  -0.48169   3.18183
C    -1.96113  -0.63027  -0.39579
O    -2.71351  -0.72174  -1.35294
O    -2.27487  -1.06146   0.82817
C    -3.56581  -1.66658   1.00487
H    -0.63726   2.31246  -3.87429
H     0.72823   1.20980  -4.17211
H    -0.88185   0.83527  -4.85290
H    -1.53986  -0.09984  -2.80407
H    -0.42078  -0.49944   1.47676
H     3.29323   1.07423   2.88464
H     2.89960  -0.12212   4.17259
H     3.63720  -0.64220   2.61633
H    -4.35947  -0.94379   0.76900
H    -3.61626  -1.95906   2.05933
H    -3.66231  -2.54852   0.35613
