27
Generated by autodE on: 2022-06-20. E = -815.113866 Ha
C    -4.07830  -1.93644  -0.59356
N    -3.06850  -0.95298  -0.25735
C    -1.76765  -1.19632  -0.44443
O    -1.32525  -2.25436  -0.92256
C    -0.79484  -0.12772  -0.04714
N     0.45623  -0.53109  -0.20051
C     1.71415  -0.13013   0.04262
C     2.09789   1.03314   0.74809
N     2.54016   1.92879   1.35014
C     2.73441  -1.10527  -0.40552
C     4.17714  -0.78113  -0.16123
O     2.36442  -2.14008  -0.95753
C    -1.20067   1.22128   0.37456
O    -2.31757   1.50002   0.78601
O    -0.23126   2.11062   0.20959
C    -0.46613   3.45233   0.66249
H    -5.06863  -1.49769  -0.42389
H    -3.97902  -2.84233   0.02637
H    -3.99691  -2.23809  -1.64898
H    -3.32323  -0.07280   0.18875
H     0.46676  -1.49029  -0.62635
H     4.36374  -0.66958   0.91900
H     4.43660   0.17974  -0.63410
H     4.80869  -1.58056  -0.56737
H    -1.29435   3.90275   0.09784
H    -0.70370   3.45337   1.73560
H     0.46652   3.99618   0.47801
