41
Generated by autodE on: 2022-06-20. E = -1085.776560 Ha. Imaginary frequency = -370.8 cm-1
C    -0.90734   1.84342  -3.91500
N    -1.29506   1.18961  -2.68179
C    -0.47720   1.17692  -1.62144
O     0.59681   1.78834  -1.60006
C    -0.89588   0.36131  -0.42018
C    -2.32398  -0.07953  -0.31171
O    -3.02448  -0.36363  -1.26926
O    -2.72793  -0.20587   0.94736
C    -4.03838  -0.75489   1.17085
N    -0.33671   0.70483   0.79698
C     0.98225   0.68064   1.11604
C     2.01529   1.49373   0.55304
N     2.97363   2.09923   0.28768
C     1.19175   0.27059   2.56527
C     2.55137   0.41134   3.16585
O     0.22648  -0.16188   3.17791
C     1.43987  -1.06757  -0.36135
C     2.22954  -1.73691   0.65343
O     3.45711  -1.65459   0.71627
C     0.11323  -1.45233  -0.74534
C    -0.09830  -1.70036  -2.22519
C    -0.63131  -2.41815   0.15664
H    -1.73924   1.77766  -4.62653
H    -0.66932   2.90372  -3.74144
H    -0.01874   1.36496  -4.35957
H    -2.13490   0.61496  -2.63999
H    -4.79927  -0.12560   0.68953
H    -4.17569  -0.76231   2.25740
H    -4.08993  -1.77660   0.76939
H    -0.87138   0.33266   1.59362
H     2.80751   1.48123   3.23573
H     2.55805  -0.03898   4.16576
H     3.31350  -0.06025   2.52684
H     2.03336  -0.52767  -1.10452
H     1.67588  -2.34997   1.39744
H     0.25153  -2.72091  -2.45470
H    -1.16236  -1.64905  -2.49475
H     0.47458  -1.00290  -2.85144
H    -0.13376  -3.40107   0.12552
H    -1.66163  -2.57158  -0.19267
H    -0.65394  -2.08685   1.20345
