51
Generated by autodE on: 2022-06-02. E = -1187.785467 Ha
C    -2.68517   2.81891  -1.63715
N    -1.98824   1.99026  -0.67407
C    -1.68141   0.71158  -0.96080
O    -2.14566   0.13214  -1.94862
C    -0.81452  -0.02382   0.07971
C    -1.68687  -0.32562   1.35966
C    -3.06313  -0.86759   0.91120
C    -2.71297  -2.25215   0.29317
C    -1.20396  -2.38828   0.58618
C    -1.06155  -1.62161   1.91261
C    -0.41956  -1.46995  -0.37362
C     1.11135  -1.57159  -0.18391
C     1.80423  -1.75175  -1.53483
C     1.70025  -3.12550  -2.13966
O     2.42591  -0.85169  -2.07471
N     1.49127  -0.39752   0.57486
C     2.90536  -0.18242   0.82465
C     0.56089   0.69945   0.37500
C     0.41214   1.63719   1.59862
C     0.92122   1.23097   2.94636
O    -0.16311   2.70413   1.43683
C     1.04403   1.54352  -0.82926
O     0.62801   1.46924  -1.96538
O     2.08240   2.30147  -0.47659
C     2.76829   2.99618  -1.53053
H    -2.90281   3.79295  -1.18054
H    -3.63293   2.35145  -1.94144
H    -2.07880   2.98071  -2.54557
H    -1.46287   2.45291   0.06903
H    -1.76766   0.52305   2.04934
H    -3.69621  -0.98267   1.80303
H    -3.59964  -0.20606   0.21999
H    -2.92396  -2.29246  -0.78512
H    -3.27714  -3.06282   0.77732
H    -0.83354  -3.42226   0.57377
H    -0.02382  -1.51581   2.24744
H    -1.66157  -2.05163   2.72893
H    -0.70583  -1.63405  -1.41810
H     1.35709  -2.47605   0.40195
H     1.94880  -3.09400  -3.20867
H     0.70336  -3.56448  -1.98547
H     2.42431  -3.77907  -1.62290
H     3.32822  -1.11518   1.23155
H     3.48695   0.09058  -0.07157
H     3.05491   0.60231   1.57570
H     1.05196   0.14860   3.04449
H     1.90288   1.71199   3.09515
H     0.24166   1.62354   3.71533
H     3.59467   3.53214  -1.05052
H     3.15354   2.27649  -2.26655
H     2.08932   3.70430  -2.02620
