24
Generated by autodE on: 2022-06-02. E = -480.984078 Ha
C     3.69592   0.93159  -0.06375
N     2.42500   0.29953  -0.34533
C     1.33954   0.40102   0.45518
O     1.35004   1.01261   1.53730
C     0.10501  -0.26358  -0.01731
C    -0.29147  -0.52966  -1.28071
C    -1.74010  -0.96657  -1.21882
C    -2.55087   0.32941  -0.86837
C    -2.10230   0.63801   0.58862
C    -1.09042  -0.51336   0.89151
C    -1.76019  -1.68671   0.14768
H     3.95912   1.66599  -0.84235
H     4.50597   0.18726  -0.00537
H     3.62603   1.45112   0.89902
H     2.33710  -0.24419  -1.19718
H     0.26023  -0.32667  -2.20157
H    -2.11835  -1.51282  -2.09214
H    -2.33359   1.14726  -1.57025
H    -3.62957   0.11857  -0.92134
H    -2.95138   0.59046   1.28689
H    -1.62857   1.62376   0.69887
H    -0.85432  -0.64534   1.95410
H    -2.77725  -1.90752   0.50708
H    -1.15405  -2.60495   0.15791
