27
Generated by autodE on: 2022-07-27. E = -706.735817 Ha
C     1.74165   1.17338  -2.35916
O     1.39435   0.67777  -1.06398
C     0.23786   1.12310  -0.53812
O    -0.38484   2.04449  -1.03392
C    -0.10914   0.43906   0.72460
C    -0.90566   1.16614   1.71463
C    -1.66341   0.41348   2.79235
O    -1.03865   2.39212   1.64733
N     0.36433  -0.83038   0.95956
C     0.78911  -1.21169   2.32978
C     0.53693  -1.77027   0.03285
C    -0.16506  -1.82213  -1.24542
C    -0.00703  -3.11594  -2.00047
O    -0.87839  -0.90784  -1.66296
H     2.65046   0.63596  -2.65571
H     0.93364   0.97243  -3.07761
H     1.93831   2.25515  -2.32570
H    -1.09181   0.41749   3.73354
H    -2.59730   0.96378   2.97415
H    -1.89768  -0.62573   2.52871
H     0.03472  -1.85995   2.79059
H     1.73291  -1.76406   2.24584
H     0.95457  -0.31291   2.92851
H     1.11522  -2.64101   0.34024
H     1.04937  -3.23422  -2.29593
H    -0.64103  -3.10386  -2.89606
H    -0.26358  -3.97968  -1.36709
