51
Generated by autodE on: 2022-06-02. E = -1187.703251 Ha. Imaginary frequency = -262.3 cm-1
C    -2.69777   2.98083  -1.38647
N    -2.28845   1.85845  -0.56845
C    -1.60027   0.81364  -1.09295
O    -1.46235   0.66160  -2.31677
C    -1.08123  -0.17234  -0.11319
C    -1.75175  -0.45722   1.22744
C    -3.02281  -1.28872   0.84425
C    -2.42754  -2.63564   0.34079
C    -0.89254  -2.42796   0.52759
C    -0.87152  -1.58224   1.80903
C    -0.50664  -1.39295  -0.51944
C     1.66437  -1.04088  -0.32921
C     1.68358  -1.02874  -1.81197
C     1.95455  -2.37777  -2.43183
O     1.50493  -0.03483  -2.50430
N     1.76881   0.02239   0.51852
C     2.53533  -0.23138   1.75709
C     1.07136   1.20118   0.31100
C     0.47744   2.01405   1.38630
C     0.42389   1.57298   2.83167
O    -0.03977   3.10217   1.10189
C     1.39448   1.98193  -0.92565
O     0.64807   2.68836  -1.57045
O     2.72431   1.94456  -1.14789
C     3.19138   2.64067  -2.30729
H    -3.47121   3.55523  -0.85913
H    -3.11128   2.61890  -2.33711
H    -1.85046   3.65018  -1.61269
H    -2.17042   2.03946   0.42274
H    -1.96282   0.40274   1.87366
H    -3.64237  -1.43457   1.74167
H    -3.63778  -0.77764   0.09111
H    -2.76940  -3.48128   0.95611
H    -2.68659  -2.85408  -0.70535
H    -0.30195  -3.35239   0.52101
H     0.13431  -1.27038   2.09743
H    -1.34773  -2.08228   2.66504
H    -0.52226  -1.65881  -1.57676
H     2.09997  -1.95067   0.09077
H     3.04329  -2.55631  -2.40497
H     1.62067  -2.37887  -3.47755
H     1.47398  -3.19339  -1.87243
H     1.99212  -0.86524   2.47091
H     3.46710  -0.73934   1.47937
H     2.79764   0.72032   2.22435
H     0.34212   0.49571   2.98943
H     1.33519   1.92397   3.34245
H    -0.43357   2.07875   3.29495
H     4.27158   2.45797  -2.35676
H     2.70047   2.25337  -3.21139
H     2.99544   3.71970  -2.21995
