20
Generated by autodE on: 2022-06-17. E = -436.814399 Ha
C     3.48155   0.76989  -0.31664
N     2.48678  -0.27942  -0.33357
N     1.29330   0.15391  -0.13678
C     0.16640  -0.56183  -0.09635
C     0.24918  -2.03394  -0.29929
C    -1.01805   0.25549   0.15752
O    -0.92958   1.49820   0.30319
N    -2.21650  -0.36801   0.23474
C    -3.44045   0.37287   0.45543
H     4.05909   0.76410  -1.25713
H     4.20811   0.60035   0.49774
H     3.05277   1.78126  -0.18547
H     1.11531   1.16694   0.01354
H     0.74244  -2.26779  -1.25951
H    -0.73593  -2.51704  -0.29931
H     0.86231  -2.50990   0.48745
H    -2.27048  -1.37001   0.10228
H    -3.63643   1.08914  -0.35985
H    -4.27800  -0.33369   0.50789
H    -3.40254   0.94301   1.39759
