38
Generated by autodE on: 2022-06-17. E = -672.759673 Ha. Imaginary frequency = -370.1 cm-1
C     2.77863  -0.89153   1.73869
N     1.75493  -0.04729   1.16672
C     1.76086   0.28233  -0.14021
O     2.71313  -0.00528  -0.89290
C     0.58570   1.02024  -0.67506
C     0.79696   1.69347  -1.99809
N    -0.30443   1.60874   0.16452
N    -0.74952   0.94197   1.22084
C    -1.75122   1.67918   1.95464
C    -1.53638  -0.81383   0.21729
C    -1.29610  -1.76874   1.36084
C    -2.96697  -0.34654   0.07868
C    -0.74805  -0.89427  -0.95855
C    -1.37215  -0.47753  -2.27223
C     0.26344  -2.00820  -1.11247
H     2.58595  -1.00963   2.81297
H     3.78100  -0.45305   1.61026
H     2.79310  -1.89337   1.27433
H     0.86160   0.12218   1.64647
H    -0.11841   2.19910  -2.33557
H     1.60987   2.43843  -1.94616
H     1.08411   0.95820  -2.76093
H    -0.95017   2.27721  -0.27578
H    -1.28707   2.45072   2.59607
H    -2.29061   0.98515   2.61336
H    -2.48657   2.18460   1.29709
H    -1.71737  -2.76650   1.13351
H    -1.78427  -1.41103   2.28060
H    -0.22895  -1.90611   1.57778
H    -3.47013  -0.27387   1.05281
H    -3.04507   0.63253  -0.41858
H    -3.54858  -1.05749  -0.53744
H    -0.63029  -0.46692  -3.08394
H    -1.83994   0.51669  -2.23045
H    -2.16581  -1.18940  -2.57201
H    -0.24525  -2.94195  -1.42222
H     1.00623  -1.77383  -1.88903
H     0.80984  -2.23322  -0.18838
