46
Generated by autodE on: 2022-06-22. E = -1164.283028 Ha
C    -3.39790   0.69175   3.02264
N    -2.33852   0.60607   2.03605
C    -2.54971   0.12240   0.81285
O    -3.66201  -0.25279   0.40756
C    -1.32027   0.03071  -0.10155
C    -1.51368   0.78774  -1.44646
O    -0.52051   1.17750  -2.06764
N    -2.76490   0.94682  -1.88594
C    -3.04229   1.51824  -3.18876
O    -0.20425   0.62603   0.55848
C     0.97457  -0.17520   0.51229
C     1.20610  -0.66443   1.89849
N     1.36561  -0.94502   3.01257
C     2.18674   0.67297   0.11025
C     3.47043   0.10799   0.12098
C     4.57572   0.87198  -0.25857
C     4.41107   2.20673  -0.64231
C     3.13386   2.77261  -0.63972
C     2.02330   2.01125  -0.26261
C     0.62677  -1.29797  -0.49573
C     1.37092  -2.59887  -0.39712
O     2.23598  -2.85814   0.41229
C    -0.91904  -1.47056  -0.37653
C    -1.53810  -2.03828  -1.65477
C    -1.28745  -2.38193   0.80684
H    -4.28441   1.17991   2.59250
H    -3.04172   1.28086   3.87615
H    -3.69644  -0.30759   3.37906
H    -1.38399   0.85167   2.28171
H    -3.51009   0.52573  -1.32996
H    -2.69080   0.85928  -4.00033
H    -4.12496   1.66014  -3.29233
H    -2.54191   2.49129  -3.30185
H     3.60712  -0.92950   0.42753
H     5.57063   0.42093  -0.25065
H     5.27682   2.80413  -0.93748
H     2.99569   3.81639  -0.93137
H     1.02906   2.45294  -0.26465
H     0.84075  -0.89601  -1.49915
H     1.06439  -3.34864  -1.16144
H    -1.24193  -3.09029  -1.77622
H    -1.21630  -1.48995  -2.55117
H    -2.63455  -2.00181  -1.58964
H    -2.37795  -2.48711   0.87949
H    -0.91533  -2.00767   1.76860
H    -0.86842  -3.38686   0.64787
