14
Generated by autodE on: 2022-06-22. E = -270.683220 Ha
C    -1.27985   0.70720   0.62253
C    -0.73204  -0.44413  -0.17135
C    -1.73138  -1.44565  -0.65773
C     0.59084  -0.59928  -0.45282
C     1.66036   0.29825  -0.04293
O     1.54135   1.33562   0.60514
H    -1.06749   1.66457   0.11980
H    -2.36610   0.61339   0.76027
H    -0.79665   0.77276   1.60980
H    -1.27136  -2.25636  -1.23931
H    -2.27562  -1.87918   0.19980
H    -2.49476  -0.94320  -1.27761
H     0.90799  -1.46803  -1.03709
H     2.67731  -0.02598  -0.37268
