32
Generated by autodE on: 2022-06-22. E = -893.513876 Ha
C    -2.82476  -2.99739   1.28389
N    -1.92670  -1.97160   0.79482
C    -2.38646  -0.76165   0.41137
O    -3.60365  -0.48188   0.45617
C    -1.39677   0.20118  -0.09232
O    -0.14109  -0.23669  -0.01023
C     0.99869   0.16926  -0.50230
C     1.05480   1.06102  -1.60681
N     1.19408   1.67366  -2.58886
C     2.19425  -0.46392   0.01635
C     2.11197  -1.33825   1.12443
C     3.25980  -1.95632   1.60936
C     4.50449  -1.70580   1.01632
C     4.59522  -0.82999  -0.07171
C     3.45302  -0.21131  -0.57233
C    -1.64348   1.63173  -0.31035
O    -0.69418   2.43867  -0.32790
N    -2.93274   2.00890  -0.43359
C    -3.30343   3.40778  -0.44372
H    -3.56426  -3.28367   0.51834
H    -3.37720  -2.65664   2.17384
H    -2.23527  -3.88226   1.55242
H    -0.93770  -2.17734   0.70803
H     1.14752  -1.51779   1.60121
H     3.18784  -2.63218   2.46418
H     5.40318  -2.18773   1.40730
H     5.56359  -0.62904  -0.53465
H     3.52984   0.46678  -1.42413
H    -3.62246   1.28482  -0.21604
H    -4.35657   3.49650  -0.73907
H    -3.17522   3.88230   0.54510
H    -2.68465   3.96196  -1.16415
