46
Generated by autodE on: 2022-06-22. E = -1164.189931 Ha. Imaginary frequency = -293.4 cm-1
C    -3.58371   0.03680   2.96782
N    -2.40815   0.27354   2.15456
C    -2.48667   0.34223   0.81527
O    -3.58011   0.33735   0.21560
C    -1.19650   0.38063   0.06891
C    -1.08493   0.89445  -1.33042
O    -0.01040   0.86385  -1.94381
N    -2.22543   1.34365  -1.88618
C    -2.28391   1.66431  -3.29656
O    -0.15907   0.40881   0.90994
C     1.13272   0.12729   0.82716
C     1.60905  -0.40671   2.06877
N     2.00272  -0.87732   3.05874
C     2.10509   0.85890   0.00388
C     3.36093   0.28924  -0.27523
C     4.32076   1.01891  -0.97403
C     4.04823   2.32943  -1.38378
C     2.81092   2.90931  -1.08464
C     1.84093   2.18197  -0.39706
C     0.42241  -1.92224  -0.53731
C     1.31863  -2.67691   0.32150
O     1.02407  -3.33962   1.31491
C    -0.97764  -1.93822  -0.47423
C    -1.76804  -1.90287  -1.75632
C    -1.69079  -2.55128   0.69912
H    -4.39473   0.71908   2.67720
H    -3.32910   0.21211   4.02029
H    -3.95036  -0.99822   2.85899
H    -1.49068   0.18449   2.57846
H    -3.08236   1.17777  -1.35316
H    -2.13494   0.76861  -3.92454
H    -3.26765   2.09370  -3.52341
H    -1.50706   2.39556  -3.56343
H     3.57668  -0.73137   0.04520
H     5.28693   0.56259  -1.19995
H     4.80322   2.90051  -1.92881
H     2.59932   3.93742  -1.38662
H     0.88663   2.64334  -0.14384
H     0.88539  -1.53786  -1.44804
H     2.37903  -2.64997  -0.02344
H    -1.97976  -2.94799  -2.04422
H    -1.21315  -1.43363  -2.57845
H    -2.73761  -1.40351  -1.62462
H    -2.76639  -2.32996   0.66288
H    -1.27615  -2.22705   1.66030
H    -1.57189  -3.64774   0.65326
