47
Generated by autodE on: 2022-06-22. E = -1186.056616 Ha
C    -2.09380  -0.03432   2.96081
C    -1.49005   0.87323   1.92929
O    -1.41898   2.07600   2.09075
C    -0.93405   0.21616   0.63877
C    -1.88131  -0.89513   0.18471
C    -3.16076  -0.54258  -0.27437
C    -4.07258  -1.52621  -0.65860
C    -3.71255  -2.87780  -0.60012
C    -2.43822  -3.23235  -0.15158
C    -1.52842  -2.24628   0.24663
C    -0.71350   1.23996  -0.56090
C    -1.20815   2.66106  -0.37678
O    -2.39438   2.93399  -0.50792
C    -0.21726   3.73495  -0.14250
C     1.11255   3.53387  -0.19815
C     1.70545   2.20966  -0.46266
O     2.90800   2.02122  -0.35183
C     0.77768   1.07680  -0.91003
N     1.09460  -0.19462  -0.29263
C     2.06491  -1.10105  -0.67210
C     2.82390  -0.90189  -1.84724
C     3.75997  -1.85326  -2.25003
C     3.98414  -3.01290  -1.49891
C     3.25060  -3.19985  -0.32288
C     2.30676  -2.26156   0.09641
N     0.42053  -0.31358   0.93476
C     1.15740   0.33245   2.03108
H    -3.13953  -0.23412   2.67478
H    -1.58142  -1.00520   3.00058
H    -2.08206   0.46192   3.93973
H    -3.43927   0.51271  -0.33266
H    -5.06651  -1.23696  -1.00811
H    -4.42311  -3.64938  -0.90574
H    -2.14612  -4.28434  -0.10697
H    -0.53732  -2.52285   0.60324
H    -1.29500   0.85681  -1.40515
H    -0.63552   4.72357   0.06421
H     1.82145   4.34627  -0.01826
H     0.89620   1.01402  -2.00279
H     2.69263   0.00380  -2.43880
H     4.32975  -1.67607  -3.16602
H     4.72387  -3.74954  -1.81895
H     3.41466  -4.09161   0.28791
H     1.74757  -2.41764   1.01770
H     2.18430  -0.05544   2.02048
H     1.19167   1.43323   1.97008
H     0.70527   0.05340   2.99270
