35
Generated by autodE on: 2022-06-22. E = -804.383353 Ha
C    -2.91294  -0.92897  -2.12532
C    -1.51886  -1.49682  -1.95650
O    -1.08134  -2.27488  -2.81557
C    -0.74103  -1.10874  -0.78154
C    -1.10747   0.07296   0.02366
C    -1.16678  -0.00852   1.42807
C    -1.52792   1.10045   2.19139
C    -1.83252   2.31686   1.56904
C    -1.77448   2.41214   0.17596
C    -1.40922   1.30294  -0.58832
N     0.33409  -1.87055  -0.41149
C     0.40201  -3.30720  -0.77183
N     1.32722  -1.54019   0.36335
C     1.71334  -0.21411   0.53316
C     2.28379   0.11660   1.77970
C     2.78445   1.39518   2.01628
C     2.75404   2.36219   1.00504
C     2.22158   2.03148  -0.24711
C     1.69356   0.76471  -0.48516
H    -3.51666  -1.68069  -2.65387
H    -3.39309  -0.65816  -1.17674
H    -2.87877  -0.02896  -2.76016
H    -0.92303  -0.94930   1.92521
H    -1.57219   1.01583   3.27970
H    -2.11022   3.18635   2.16932
H    -2.00171   3.35896  -0.31948
H    -1.33678   1.39588  -1.67300
H     0.91484  -3.79928   0.06121
H    -0.59988  -3.72037  -0.91028
H     0.98995  -3.42761  -1.68884
H     2.31394  -0.64964   2.55676
H     3.20516   1.63786   2.99502
H     3.14834   3.36426   1.18744
H     2.20705   2.77480  -1.04789
H     1.28114   0.52463  -1.46522
