51
Generated by autodE on: 2022-06-25. E = -1486.365910 Ha
C    -0.27539   4.94315  -0.88423
N    -0.69765   3.56330  -1.04113
C    -0.11802   2.57497  -0.35746
O     0.80205   2.72688   0.44854
C    -0.63738   1.16921  -0.62948
O    -1.94620   1.23494  -1.32248
C    -2.58489   0.07682  -1.02651
O    -3.69194  -0.19099  -1.40180
C    -1.56305  -0.70627  -0.18117
C    -2.08446  -1.87572   0.62252
O    -3.00160  -2.57966   0.26697
O    -1.33729  -2.07545   1.70081
C    -1.54106  -3.29380   2.43636
N    -0.88982   0.37292   0.54003
C    -1.66475   1.01153   1.61006
C    -0.44396  -1.15240  -1.25272
C    -1.06282  -1.80909  -2.48666
C     0.41408  -2.19807  -0.53453
O     0.16683  -3.38734  -0.63963
C     1.47958  -1.74364   0.38538
O     1.77079  -2.64920   1.32093
C     2.37203  -2.24626   2.56036
C     2.13637  -0.57144   0.13133
O     3.29810  -0.29013   0.76413
C     3.41334   0.97486   1.43357
C     1.70990   0.30714  -0.97317
O     2.50099   1.11194  -1.44415
C     0.27007   0.23264  -1.51362
C     0.28842   0.67568  -2.97649
H    -0.51457   5.32085   0.12259
H     0.81046   5.03311  -1.03498
H    -0.79403   5.55830  -1.62862
H    -1.47838   3.33963  -1.65016
H    -0.83325  -3.25784   3.27160
H    -2.57370  -3.34949   2.80665
H    -1.32667  -4.15405   1.78689
H    -2.63446   1.41597   1.26846
H    -1.84631   0.27585   2.40218
H    -1.06881   1.82865   2.03423
H    -0.26904  -2.15706  -3.16067
H    -1.70759  -1.12280  -3.04538
H    -1.66218  -2.67667  -2.18463
H     2.16178  -3.05961   3.26650
H     1.91405  -1.31329   2.92130
H     3.45571  -2.11420   2.45241
H     4.35854   0.93615   1.98961
H     3.43789   1.80615   0.71708
H     2.57649   1.11364   2.13467
H    -0.72170   0.73248  -3.39333
H     0.75379   1.66546  -3.05509
H     0.87980  -0.02794  -3.57739
