25
Generated by autodE on: 2022-06-25. E = -796.894407 Ha
C     4.88231   0.08069   0.46382
N     3.46765   0.38327   0.36333
C     2.56599  -0.58939   0.16167
O     2.85488  -1.78429   0.05354
C     1.16062  -0.09495   0.07859
O     0.91556   1.20999   0.15676
C    -0.50407   1.43395   0.05772
O    -0.93272   2.56657   0.10752
C    -1.03474   0.12565  -0.08527
C    -2.42154  -0.26454  -0.22474
O    -2.83693  -1.40871  -0.34694
O    -3.23479   0.80761  -0.20326
C    -4.63726   0.54726  -0.32857
N     0.03843  -0.77227  -0.06584
C    -0.09018  -2.22957  -0.17861
H     5.42813   1.01147   0.65572
H     5.25763  -0.37085  -0.46796
H     5.07515  -0.62569   1.28592
H     3.15390   1.34637   0.43628
H    -5.12868   1.52657  -0.29058
H    -4.99182  -0.08536   0.49852
H    -4.85814   0.05090  -1.28503
H     0.90879  -2.66444  -0.12283
H    -0.72316  -2.59054   0.63956
H    -0.56944  -2.46755  -1.13482
