45
Generated by autodE on: 2022-06-19. E = -864.644951 Ha
C     5.36091   0.01299   1.90597
C     4.24456  -0.68413   1.61210
C     4.08965  -2.13112   1.99989
C     3.14410  -0.02792   0.89667
C     1.98214  -0.60883   0.54350
C     0.88580   0.10878  -0.17424
C     0.45707  -0.50948  -1.54700
C     0.71896  -2.01415  -1.67059
C     1.17250   0.21854  -2.68981
N    -1.01132  -0.26304  -1.59265
C    -1.42437   0.63439  -0.52755
C    -1.28727   2.05488  -0.92614
N    -1.15978   3.14040  -1.31849
C    -2.89463   0.44177  -0.09122
O    -3.43642   1.27365   0.64353
N    -3.47129  -0.66695  -0.55862
C    -4.79724  -1.09731  -0.16762
C    -0.42852   0.28488   0.64770
C    -0.87894  -0.99961   1.35685
C    -0.29513   1.39975   1.68261
H     6.19820  -0.44704   2.43838
H     5.46330   1.06435   1.61994
H     4.98071  -2.50047   2.52684
H     3.92350  -2.76381   1.11210
H     3.21422  -2.27401   2.65508
H     3.30411   1.02554   0.63768
H     1.80784  -1.65743   0.79471
H     1.24100   1.12866  -0.38563
H     0.29186  -2.38373  -2.61595
H     0.26153  -2.57927  -0.84700
H     1.79834  -2.22800  -1.68050
H     2.26296   0.09717  -2.59565
H     0.86751  -0.19155  -3.66628
H     0.94444   1.29525  -2.67739
H    -1.31677   0.06362  -2.50793
H    -2.86186  -1.27503  -1.10352
H    -5.25218  -1.67722  -0.98164
H    -5.42217  -0.21881   0.04017
H    -4.77007  -1.72547   0.73877
H    -0.11169  -1.30820   2.08087
H    -1.80659  -0.82391   1.92140
H    -1.04872  -1.83194   0.66270
H    -1.25626   1.58871   2.18223
H     0.43853   1.10230   2.44710
H     0.05272   2.34045   1.23131
