22
Generated by autodE on: 2022-06-19. E = -513.088127 Ha
C     3.74977  -0.07619   0.71182
N     2.49655   0.26125   0.07029
C     1.31939  -0.25625   0.49421
O     1.27070  -1.08302   1.43551
C     0.09460   0.16401  -0.17574
C     0.08720   1.07837  -1.23208
N     0.18195   1.85231  -2.11051
N    -1.03739  -0.44605   0.36045
C    -2.31194  -0.39964   0.09934
C    -2.85275   0.45076  -0.99783
C    -3.23801  -1.22303   0.92635
H     4.56962   0.39497   0.15536
H     3.91472  -1.16511   0.72074
H     3.78937   0.27735   1.75626
H     2.49563   0.95814  -0.66598
H    -0.73051  -1.06024   1.13016
H    -2.61615   1.51355  -0.82590
H    -2.40992   0.17024  -1.96742
H    -3.94221   0.33981  -1.06337
H    -2.70519  -1.79785   1.69682
H    -3.98457  -0.57203   1.41255
H    -3.80028  -1.91810   0.27971
