52
Generated by autodE on: 2022-05-31. E = -1019.285604 Ha
C    -8.34223  -4.20962   2.77556
C    -7.06896  -4.21425   1.92555
C    -5.80809  -4.50564   2.75151
C    -5.45589  -5.79150   2.54859
C    -6.39532  -6.39653   1.48819
C    -7.37549  -7.35835   2.03178
N    -8.19308  -8.08992   2.41099
N    -7.09892  -5.26281   0.88217
C    -6.40578  -4.82716  -0.33029
C    -4.25893  -6.65566   2.97920
C    -3.80566  -6.41567   4.35766
N    -3.41206  -6.31722   5.44479
C    -4.67327  -8.15389   2.95830
C    -5.31471  -8.72147   4.06879
C    -5.74842 -10.04740   4.04472
C    -5.55408 -10.82882   2.90250
C    -4.91628 -10.27261   1.79139
C    -4.47301  -8.94715   1.81985
C    -3.07122  -6.38581   1.99544
C    -2.23380  -5.12120   2.20251
C    -2.94235  -3.75930   2.23415
C    -3.62442  -3.42900   3.57781
C    -5.17807  -3.40032   3.59991
C    -5.60667  -2.01308   3.07404
C    -5.66223  -3.52721   5.06055
H    -8.46246  -5.15968   3.31796
H    -9.22425  -4.05924   2.13471
H    -8.31681  -3.39836   3.51691
H    -6.98999  -3.24519   1.41875
H    -5.82982  -6.94435   0.71997
H    -5.35194  -4.53570  -0.14774
H    -6.41502  -5.63447  -1.07666
H    -6.92912  -3.96187  -0.76102
H    -5.49251  -8.11989   4.96176
H    -6.24758 -10.46768   4.92073
H    -5.89706 -11.86568   2.87868
H    -4.75675 -10.87190   0.89207
H    -3.98321  -8.53761   0.93709
H    -3.50258  -6.38067   0.98377
H    -2.39197  -7.24930   2.04965
H    -1.64025  -5.22759   3.12711
H    -1.50073  -5.11753   1.37904
H    -2.17541  -2.99486   2.03470
H    -3.65924  -3.68637   1.39950
H    -3.25551  -4.11539   4.34693
H    -3.29930  -2.43312   3.91642
H    -5.15110  -1.23532   3.70511
H    -5.26585  -1.84895   2.03995
H    -6.69519  -1.86615   3.10608
H    -5.18993  -2.74638   5.67896
H    -6.75234  -3.40096   5.13318
H    -5.40099  -4.50465   5.48826
