37
Generated by autodE on: 2022-05-31. E = -714.255109 Ha
C     3.41738   0.96621   1.67466
C     3.15094  -0.13141   0.62769
C     4.35194  -0.24696  -0.32372
C     1.90203   0.15036  -0.08779
C     0.73774   0.11991  -0.42502
C    -0.64346  -0.38219  -0.43419
C    -0.77352  -1.33061  -1.55978
N    -0.87150  -2.09731  -2.42536
C    -1.72940   0.69655  -0.53599
C    -1.42983   2.03182  -0.24477
C    -2.43702   3.00115  -0.26973
C    -3.75003   2.64332  -0.58781
C    -4.05210   1.30939  -0.88086
C    -3.04691   0.34008  -0.85425
C    -0.80513  -1.17908   0.91647
C     0.31101  -2.18533   1.25456
C     1.54444  -1.68521   2.06003
C     2.88637  -1.50821   1.31893
H     4.33664   0.72973   2.23306
H     3.54963   1.94509   1.18907
H     2.58693   1.04952   2.39118
H     4.16643  -0.99746  -1.10710
H     4.56250   0.71789  -0.81027
H     5.24771  -0.55042   0.24050
H    -0.40423   2.31357   0.00165
H    -2.19120   4.04112  -0.04246
H    -4.53601   3.40177  -0.61055
H    -5.07499   1.02070  -1.13346
H    -3.29055  -0.69951  -1.08592
H    -0.88424  -0.41701   1.70666
H    -1.77654  -1.69389   0.86471
H     0.64216  -2.69729   0.33446
H    -0.17398  -2.96717   1.85931
H     1.28426  -0.75702   2.59606
H     1.72971  -2.43026   2.84947
H     3.71501  -1.66472   2.02982
H     2.97727  -2.29805   0.55469
