15
Generated by autodE on: 2022-07-26. E = -304.930419 Ha
C    -0.61377   1.50253   1.18682
C    -0.15633   1.44792  -0.22073
N     0.02572   0.33083  -0.88908
C     0.33758   0.42490  -2.32878
C    -0.03944  -0.97026  -0.41568
C     0.14777  -1.33682   0.91276
N     0.32677  -1.71337   2.01451
H     0.17548   1.22861   1.90893
H    -1.44848   0.79736   1.34920
H    -0.95077   2.52073   1.42501
H     0.02183   2.36572  -0.78127
H     1.35626   0.05490  -2.50514
H    -0.37257  -0.20161  -2.88449
H     0.24493   1.46428  -2.65964
H    -0.06198  -1.74733  -1.17741
