15
Generated by autodE on: 2022-05-31. E = -304.927735 Ha
C    -2.14254  -0.22474  -1.93281
C    -1.35978  -0.77741  -0.79683
N    -0.34880  -0.15187  -0.23549
C     0.02877   1.17273  -0.76373
C     0.38136  -0.67362   0.82280
C     1.44385  -0.00535   1.40809
N     2.35524   0.52613   1.93735
H    -2.63347   0.73193  -1.67735
H    -2.92388  -0.94015  -2.22106
H    -1.51393  -0.02905  -2.82029
H    -1.60499  -1.75514  -0.37563
H    -0.82792   1.85394  -0.68805
H     0.86773   1.57546  -0.19010
H     0.31790   1.07558  -1.81789
H     0.07802  -1.65553   1.18446
