52
Generated by autodE on: 2022-05-31. E = -1019.188242 Ha. Imaginary frequency = -305.6 cm-1
C    -8.14697  -4.36472   4.02966
C    -7.74898  -4.43642   2.59017
C    -5.38770  -4.50329   2.90722
C    -5.18200  -5.72542   3.02060
C    -7.32061  -6.77741   2.45415
C    -7.71666  -7.25127   3.72171
N    -7.99871  -7.75491   4.74044
N    -7.71254  -5.58401   1.90355
C    -7.44319  -5.48509   0.46351
C    -4.30279  -6.88315   3.35224
C    -4.51037  -7.16323   4.78704
N    -4.62681  -7.33303   5.92922
C    -4.60530  -8.12387   2.49933
C    -4.96118  -9.35507   3.05561
C    -5.25544 -10.44713   2.22959
C    -5.19170 -10.31697   0.84152
C    -4.82751  -9.08645   0.28008
C    -4.53626  -7.99975   1.10359
C    -2.79103  -6.51720   3.16910
C    -2.27131  -5.27869   3.90564
C    -2.36559  -3.92418   3.17180
C    -3.52041  -2.98290   3.53904
C    -4.87434  -3.10570   2.78599
C    -4.69618  -2.79927   1.28514
C    -5.81368  -2.05119   3.39627
H    -7.46920  -4.91603   4.69321
H    -9.16271  -4.77763   4.16682
H    -8.16680  -3.31650   4.35125
H    -7.95074  -3.56223   1.97047
H    -7.11195  -7.56636   1.73372
H    -6.35551  -5.48237   0.29736
H    -7.88672  -6.34540  -0.05224
H    -7.87808  -4.55949   0.07197
H    -5.02824  -9.46852   4.13885
H    -5.53941 -11.40122   2.67983
H    -5.42542 -11.16778   0.19736
H    -4.77729  -8.97184  -0.80527
H    -4.27812  -7.03639   0.65885
H    -2.62077  -6.40333   2.08879
H    -2.22439  -7.40574   3.48801
H    -2.73773  -5.20255   4.90312
H    -1.20462  -5.47262   4.09889
H    -1.43972  -3.37328   3.40194
H    -2.33683  -4.09182   2.08196
H    -3.72334  -3.07417   4.61993
H    -3.18164  -1.94518   3.38066
H    -4.28832  -1.78412   1.15237
H    -4.01237  -3.51399   0.80435
H    -5.66266  -2.85352   0.76182
H    -5.33530  -1.06085   3.34191
H    -6.76713  -1.98960   2.85531
H    -6.02358  -2.26765   4.45407
