39
Generated by autodE on: 2022-06-01. E = -1619.186943 Ha
C     2.62552   3.52867   0.55402
O     1.88856   2.30067   0.72604
C     1.78393   1.52150  -0.32884
O     2.24747   1.73488  -1.42636
C     0.95695   0.25927  -0.07533
C     1.81713  -0.98964  -0.38753
O     1.34305  -2.04204  -0.74611
O     3.08565  -0.77169  -0.10188
C     3.98838  -1.89020  -0.22660
O     0.59458   0.15458   1.29796
C    -0.59083  -0.60081   1.45111
C    -1.25399  -0.11425   2.67929
N    -1.75411   0.24512   3.65921
C    -0.27280  -2.03207   1.70057
N     0.02575  -3.11075   1.99744
C    -1.45343  -0.35259   0.13648
Cl   -2.17094  -1.89712  -0.42405
C    -2.50565   0.76418   0.31885
C    -3.28297   0.97183  -0.99665
C    -2.25089   1.68029  -1.91675
C    -0.98968   1.75391  -1.03524
C    -1.60755   2.01753   0.34764
C    -0.39737   0.30089  -0.86596
C    -0.28116  -0.35273  -2.16427
N    -0.20593  -0.78673  -3.23645
H     3.65734   3.30655   0.24967
H     2.60806   4.02398   1.53048
H     2.13672   4.15344  -0.20617
H     3.99894  -2.24562  -1.26594
H     4.97365  -1.50989   0.06253
H     3.67077  -2.70004   0.44440
H    -3.14673   0.58305   1.18866
H    -3.65833   0.02945  -1.41328
H    -4.15008   1.61422  -0.79316
H    -2.56588   2.70497  -2.15598
H    -2.08352   1.15777  -2.86682
H    -0.24064   2.46325  -1.40039
H    -2.20384   2.93983   0.35626
H    -0.88432   2.06721   1.16939
