21
Generated by autodE on: 2022-07-27. E = -794.324085 Ha
C     0.55047   3.96028   0.07111
O     0.14085   2.59128   0.22385
C     0.78574   1.69466  -0.51811
O     1.66620   1.95516  -1.31294
C     0.30097   0.31513  -0.26089
O    -0.54345   0.21555   0.71710
C    -1.28033  -0.72516   1.26485
C    -2.01175  -0.30906   2.40451
N    -2.61245   0.00403   3.35248
C    -1.50152  -2.01273   0.72693
N    -1.80226  -3.06307   0.32021
C     0.88288  -0.89932  -0.87890
O     0.94236  -1.94675  -0.26103
O     1.33731  -0.70605  -2.10346
C     1.99676  -1.82326  -2.72979
H    -0.08217   4.53885   0.75328
H     0.39758   4.28987  -0.96652
H     1.61018   4.07357   0.34109
H     1.30469  -2.67340  -2.80825
H     2.29267  -1.47307  -3.72437
H     2.88004  -2.11572  -2.14476
