21
Generated by autodE on: 2022-06-01. E = -794.323167 Ha
C    -3.39138  -0.90208  -0.12662
O    -2.04370  -0.51310   0.19557
C    -1.05788  -1.22710  -0.33246
O    -1.18878  -2.24433  -0.97569
C     0.25833  -0.61999   0.00281
O     0.45254   0.64994   0.14239
C    -0.18125   1.78722  -0.03479
C    -1.46052   1.93946  -0.61795
N    -2.48074   2.16984  -1.13257
C     0.57147   2.93696   0.30875
N     1.16645   3.89713   0.59476
C     1.44604  -1.46939   0.26230
O     1.40678  -2.68314   0.23265
O     2.52897  -0.74669   0.53107
C     3.73023  -1.48050   0.82197
H    -4.03990  -0.18149   0.38223
H    -3.58323  -1.92095   0.23666
H    -3.54334  -0.85666  -1.21397
H     3.58193  -2.11978   1.70395
H     4.01431  -2.10132  -0.03975
H     4.49991  -0.72655   1.02025
