39
Generated by autodE on: 2022-06-01. E = -1619.107300 Ha. Imaginary frequency = -238.4 cm-1
C     1.98195   3.84108   0.61194
O     1.60891   2.49080   0.93518
C     1.93308   1.55756   0.04765
O     2.54903   1.76159  -0.97707
C     1.38746   0.21801   0.42417
C     2.03336  -1.06255   0.03318
O     1.80410  -2.09445   0.63354
O     2.85455  -0.95012  -0.99333
C     3.47268  -2.16285  -1.45976
O     0.62389   0.24120   1.49379
C    -0.36227  -0.52921   1.93618
C    -1.25498   0.14558   2.81858
N    -2.02620   0.67963   3.50776
C    -0.39116  -1.94781   2.01286
N    -0.62001  -3.07823   2.17615
C    -1.59933  -0.35073  -0.34244
Cl   -2.13684  -1.98262  -0.50435
C    -2.56947   0.76784  -0.03250
C    -3.27088   1.05437  -1.40397
C    -2.13212   1.67044  -2.26272
C    -0.91334   1.67141  -1.28732
C    -1.61444   1.97364   0.05015
C    -0.55687   0.18761  -1.11237
C     0.08936  -0.55296  -2.13979
N     0.60362  -1.14159  -3.00143
H     3.07049   3.91584   0.48185
H     1.65409   4.45109   1.46067
H     1.47505   4.16183  -0.30935
H     2.70194  -2.89164  -1.74475
H     4.06912  -1.87371  -2.33157
H     4.11548  -2.58518  -0.67483
H    -3.24845   0.58096   0.80611
H    -3.70204   0.14367  -1.84047
H    -4.08646   1.77112  -1.23474
H    -2.35853   2.70630  -2.55189
H    -1.92417   1.10042  -3.17880
H    -0.08057   2.31262  -1.59369
H    -2.15814   2.92751   0.01955
H    -0.94714   1.97707   0.91691
