54
Generated by autodE on: 2022-06-05. E = -1405.992527 Ha
C    -5.10161   0.84675  -0.34586
N    -3.85667   0.26260   0.11235
C    -2.67432   0.74713  -0.26889
O    -2.57297   1.72836  -1.01793
C    -1.40308   0.10557   0.33014
C    -1.62671  -1.41703   0.57103
O    -2.54703  -1.74600   1.33954
N    -0.84079  -2.34951   0.02926
C    -0.95395  -3.74206   0.42639
C    -1.12999   0.73039   1.74075
N     0.31593   0.97919   1.84248
C     0.97830   0.45837   0.64167
C     1.51923  -0.97998   0.90065
O     2.02460  -1.64564  -0.00913
N     1.41571  -1.38506   2.16729
C     1.85345  -2.68750   2.62248
C     2.25208   1.26350   0.31437
O     2.66453   1.37991  -0.84694
N     2.90860   1.76732   1.36268
C     4.14992   2.50431   1.20284
C    -0.14169   0.54556  -0.48600
C    -0.23045   2.09250  -0.86590
C    -0.19609   2.51140  -2.31252
O    -0.13498   2.93619   0.01031
C    -0.06899  -0.21616  -1.82599
O    -1.11330  -0.66855  -2.31872
N     1.10396  -0.25902  -2.45638
C     1.21984  -0.78017  -3.80111
H    -5.93650   0.26292   0.05999
H    -5.20120   1.89119  -0.00983
H    -5.16250   0.83833  -1.44530
H    -3.84584  -0.53823   0.74491
H    -0.04283  -2.10579  -0.54375
H    -1.91847  -4.16821   0.11019
H    -0.14215  -4.30469  -0.04970
H    -0.87457  -3.84623   1.51939
H    -1.48928   0.04896   2.52142
H    -1.66779   1.68015   1.85335
H     0.43383   1.98910   1.81906
H     1.01845  -0.70320   2.81259
H     1.84487  -3.39125   1.78068
H     2.87570  -2.65056   3.03447
H     1.17459  -3.05106   3.40544
H     2.53329   1.62011   2.29449
H     3.99791   3.39793   0.57854
H     4.50330   2.81579   2.19257
H     4.91983   1.87877   0.72562
H    -0.75528   1.84345  -2.97514
H     0.85762   2.52985  -2.63214
H    -0.59587   3.53132  -2.38059
H     1.89606   0.20446  -2.00141
H     0.79036  -1.79127  -3.86940
H     0.69207  -0.13880  -4.52824
H     2.28119  -0.82519  -4.07597
