22
Generated by autodE on: 2022-07-27. E = -550.219852 Ha
C    -2.17089   0.39957   1.65217
N    -1.25962   0.76195   0.78676
C    -0.27822   0.13566   0.04656
C    -0.01351  -1.30450   0.11148
O     0.53570  -1.93406  -0.80901
N    -0.38878  -1.96245   1.25154
C    -0.07147  -3.36770   1.41874
C     0.51408   1.01218  -0.82353
O     1.10697   0.63027  -1.84375
N     0.54977   2.34623  -0.46628
C     1.28418   3.28678  -1.29216
H    -2.86574   1.16852   1.98739
H    -2.27171  -0.62934   1.98491
H    -1.31457   1.75739   0.54564
H    -0.52610  -1.42518   2.10088
H    -0.53222  -3.72703   2.34813
H     1.01603  -3.55204   1.46858
H    -0.47098  -3.95369   0.57874
H     0.50970   2.57439   0.52341
H     2.37023   3.08729  -1.29906
H     0.92927   3.24095  -2.33152
H     1.11652   4.30233  -0.90998
