22
Generated by autodE on: 2022-06-05. E = -550.237682 Ha
C    -1.30272   2.62073  -0.13823
N    -0.26265   1.83964  -0.07978
C    -0.01591   0.49212   0.02716
C    -1.00827  -0.56438  -0.04783
O    -0.73625  -1.75029   0.25957
N    -2.26799  -0.25426  -0.47096
C    -3.25142  -1.30200  -0.66959
C     1.42825   0.25534   0.17270
O     2.22525   1.22675   0.12976
N     1.85782  -1.00674   0.35037
C     3.26074  -1.32311   0.49639
H    -2.31958   2.23821  -0.08487
H    -1.11842   3.69337  -0.19449
H     0.66668   2.30429  -0.08124
H    -2.40166   0.59899  -1.00224
H    -2.96983  -1.99782  -1.47911
H    -3.37509  -1.89083   0.25026
H    -4.21415  -0.83924  -0.92203
H     1.12798  -1.71875   0.40865
H     3.70452  -0.82376   1.37402
H     3.84280  -1.01703  -0.38860
H     3.36845  -2.40777   0.62347
