32
Generated by autodE on: 2022-06-05. E = -855.709849 Ha
C    -2.16634  -3.50240  -0.86863
N    -1.59270  -2.17178  -0.96592
C    -1.25562  -1.46696   0.11850
O    -1.38984  -1.88693   1.27705
C    -0.74099  -0.07408  -0.16123
C    -1.79754   0.77442  -0.85414
C    -2.80499   1.44205   0.03314
O    -1.91375   0.68715  -2.06668
C     0.49802   0.38054   0.11810
C     0.77107   1.82080  -0.24647
O    -0.17604   2.56444  -0.55120
N     2.04015   2.23831  -0.22431
C     2.39962   3.59378  -0.58695
C     1.61575  -0.45057   0.70145
O     2.78290  -0.31187   0.29229
N     1.30708  -1.29698   1.69008
C     2.31127  -2.16757   2.27110
H    -3.17630  -3.47091  -0.42942
H    -2.22753  -3.93422  -1.87429
H    -1.53714  -4.14628  -0.23732
H    -1.52444  -1.72034  -1.87483
H    -3.38071   2.18108  -0.54096
H    -3.49457   0.65818   0.39474
H    -2.33173   1.90514   0.90801
H     2.75261   1.52248  -0.06699
H     1.85246   4.32261   0.02997
H     3.47603   3.73007  -0.42776
H     2.16640   3.80431  -1.64381
H     0.32207  -1.44397   1.92026
H     2.71620  -2.87140   1.52590
H     1.85219  -2.73885   3.08677
H     3.15112  -1.58111   2.67312
