54
Generated by autodE on: 2022-06-05. E = -1405.934881 Ha. Imaginary frequency = -184.0 cm-1
C    -4.98682   1.40945   1.05428
N    -3.67891   0.78825   0.97104
C    -2.91576   0.92507  -0.13144
O    -3.23431   1.68970  -1.04604
C    -1.68901   0.02299  -0.27303
C    -2.06775  -1.44170  -0.32259
O    -3.24642  -1.77988  -0.49229
N    -1.07707  -2.34234  -0.16905
C    -1.28968  -3.74616  -0.45591
C    -0.87981   0.24049   1.97825
N     0.25314   0.87256   1.67766
C     1.32794   0.36343   1.03688
C     1.66005  -1.09376   1.19214
O     1.91098  -1.83889   0.23551
N     1.68864  -1.53499   2.46190
C     1.90852  -2.93568   2.77306
C     2.35910   1.24834   0.46359
O     3.09235   0.83278  -0.45699
N     2.46547   2.50572   0.93496
C     3.34354   3.47636   0.30648
C    -0.60863   0.45758  -1.05251
C    -0.29527   1.90322  -1.08637
C     0.47341   2.47610  -2.24901
O    -0.64997   2.64206  -0.16028
C    -0.06787  -0.44220  -2.14523
O    -0.86219  -1.04202  -2.88921
N     1.25852  -0.51691  -2.31019
C     1.84210  -1.41055  -3.28758
H    -5.39221   1.25158   2.06157
H    -4.91169   2.49033   0.86783
H    -5.68885   0.98409   0.31645
H    -3.48001   0.02319   1.60600
H    -0.10998  -2.02585  -0.13266
H    -1.45874  -3.91224  -1.53429
H    -0.39917  -4.30759  -0.14543
H    -2.16295  -4.12789   0.09191
H    -0.86898  -0.83473   2.13816
H    -1.65135   0.85204   2.43611
H     0.12506   1.88517   1.57747
H     1.49327  -0.88834   3.22026
H     2.87981  -3.27872   2.38551
H     1.89470  -3.06039   3.86224
H     1.12129  -3.56672   2.33009
H     1.95749   2.78770   1.76600
H     3.07150   3.62527  -0.74962
H     3.24360   4.43140   0.83591
H     4.39562   3.15377   0.34957
H     0.07719   2.11003  -3.20802
H     1.52946   2.17375  -2.19287
H     0.41377   3.57119  -2.20685
H     1.88081  -0.12890  -1.59545
H     1.41276  -1.23787  -4.28574
H     2.92417  -1.23106  -3.33021
H     1.66947  -2.46800  -3.02188
