23
Generated by autodE on: 2022-06-24. E = -351.521383 Ha
C    -3.75256   0.27801   0.37428
C    -2.57636  -0.00852  -0.22598
C    -2.52720  -0.58962  -1.61601
C    -1.31881   0.24366   0.47493
C    -0.07742  -0.00115  -0.01478
C     1.13911   0.26758   0.72456
C     2.41279   0.04955   0.31001
C     2.78415  -0.52547  -1.02738
C     3.57781   0.38143   1.19910
H    -3.78490   0.69941   1.38377
H    -4.70801   0.09938  -0.12684
H    -1.96285   0.06508  -2.30074
H    -2.01399  -1.56562  -1.62068
H    -3.53760  -0.72875  -2.02567
H    -1.40882   0.66700   1.48263
H     0.02034  -0.42365  -1.01846
H     0.99971   0.69229   1.72612
H     3.37144  -1.45133  -0.89466
H     1.92097  -0.75695  -1.66453
H     3.43851   0.17499  -1.57581
H     4.24954   1.10907   0.70906
H     4.19117  -0.51707   1.39233
H     3.25806   0.79864   2.16526
