29
Generated by autodE on: 2022-07-27. E = -840.943716 Ha
C    -1.17236   2.82197  -2.13265
O    -1.07687   1.97890  -0.98273
C    -1.47045   2.49155   0.20542
O    -1.95500   3.61684   0.31361
C    -1.35549   1.57221   1.29797
O    -0.82974   0.34823   1.24189
C     0.03889  -0.21807   0.45267
C     0.96304   0.64770  -0.34374
O     1.49366   1.62982   0.13479
O     1.19250   0.18450  -1.56482
C     2.13397   0.92148  -2.36508
C     0.20430  -1.64833   0.60837
C     1.30404  -2.33643   0.04263
C     1.44502  -3.70974   0.22685
C     0.50390  -4.42784   0.97262
C    -0.58946  -3.75778   1.53663
C    -0.74401  -2.38741   1.35652
H    -0.81284   2.22117  -2.97636
H    -2.21349   3.13145  -2.30595
H    -0.54192   3.71493  -2.00947
H    -1.92571   1.74068   2.20898
H     2.15903   0.41732  -3.33721
H     3.12799   0.90119  -1.89650
H     1.79964   1.96204  -2.47932
H     2.05304  -1.79584  -0.53467
H     2.30193  -4.22398  -0.21379
H     0.61884  -5.50510   1.11116
H    -1.33243  -4.31240   2.11421
H    -1.60655  -1.87502   1.78394
