29
Generated by autodE on: 2022-06-24. E = -840.949619 Ha
C     4.09007  -1.47649  -0.98280
O     2.86592  -0.80560  -0.66280
C     2.92515   0.53605  -0.56149
O     3.95721   1.18040  -0.71988
C     1.66005   1.16743  -0.24737
O     0.62310   0.38949  -0.09773
C    -0.66935   0.42545   0.17736
C    -1.38603   1.68848   0.43159
O    -2.57550   1.77094   0.72315
O    -0.60086   2.76875   0.31095
C    -1.21060   4.04332   0.55971
C    -1.29142  -0.89637   0.19947
C    -0.49234  -2.04027  -0.04162
C    -1.04947  -3.31500  -0.03162
C    -2.41624  -3.49176   0.21822
C    -3.21583  -2.37095   0.45767
C    -2.66827  -1.08779   0.45013
H     3.83350  -2.53631  -1.09554
H     4.82420  -1.35059  -0.17281
H     4.51424  -1.08764  -1.91998
H     1.58663   2.24368  -0.14140
H    -1.97900   4.25284  -0.19848
H    -1.66739   4.06244   1.55913
H    -0.40160   4.77975   0.49494
H     0.57280  -1.91981  -0.23773
H    -0.41021  -4.18062  -0.22075
H    -2.85109  -4.49373   0.22597
H    -4.28378  -2.49227   0.65401
H    -3.30447  -0.22692   0.63900
