52
Generated by autodE on: 2022-06-24. E = -1192.474277 Ha. Imaginary frequency = -196.8 cm-1
C    -3.72274   3.71069  -2.10035
O    -3.51537   2.66477  -1.14115
C    -2.98716   3.02871   0.03166
O    -2.83706   4.18286   0.38659
C    -2.78504   1.86993   0.93089
C    -0.63507   2.41400   2.06483
C     0.06155   1.23309   2.02699
C    -0.30815   0.10756   2.95353
C     1.17664   1.06144   1.11296
C     1.91659  -0.07002   0.96838
C     2.97381  -0.19943  -0.01043
C     3.68008  -1.32058  -0.30614
C     3.48206  -2.64797   0.36879
C     4.73189  -1.30602  -1.37886
C    -1.58253   0.13078  -0.28300
C    -0.81402   1.01414  -1.14349
O    -0.89984   2.23926  -1.15191
O     0.06352   0.36723  -1.92917
C     0.93784   1.17806  -2.71932
C    -1.43067  -1.30845  -0.09478
C    -0.28646  -2.03714  -0.49948
C    -0.16457  -3.39615  -0.20395
C    -1.16660  -4.07364   0.49444
C    -2.30565  -3.36797   0.90090
C    -2.43697  -2.01249   0.61380
O    -2.48505   0.66095   0.55000
H    -4.12719   3.22394  -2.99530
H    -4.43680   4.45367  -1.71685
H    -2.76856   4.20423  -2.33514
H    -3.36825   1.88183   1.85486
H    -0.35520   3.25052   1.42216
H    -1.32804   2.62441   2.88060
H     0.53957  -0.16512   3.60414
H    -0.57796  -0.80181   2.39184
H    -1.16045   0.38121   3.59088
H     1.40979   1.92094   0.47573
H     1.68564  -0.93636   1.59215
H     3.19667   0.70498  -0.58843
H     3.21808  -3.41854  -0.37685
H     4.42477  -2.98511   0.83529
H     2.70129  -2.63991   1.13958
H     4.49287  -2.03759  -2.17174
H     5.71356  -1.60851  -0.97154
H     4.83828  -0.31423  -1.84249
H     0.36580   1.75204  -3.46339
H     1.61992   0.48173  -3.22080
H     1.50709   1.87240  -2.08572
H     0.51617  -1.53999  -1.03244
H     0.73585  -3.92646  -0.52231
H    -1.06503  -5.13797   0.71807
H    -3.10383  -3.88055   1.44339
H    -3.33515  -1.48345   0.93272
