42
Generated by autodE on: 2022-05-31. E = -1215.998971 Ha
C    -0.46946  -2.15841   3.44141
N    -0.60800  -1.97590   2.00852
C     0.35260  -1.41041   1.27910
O     1.41678  -0.99042   1.74072
C     0.07164  -1.19028  -0.24826
C    -0.75991  -2.30521  -0.93994
C    -0.50957  -2.52447  -2.39790
O    -1.61078  -2.92134  -0.32374
N     1.32383  -0.95447  -0.95414
C     1.57081   0.48135  -1.07943
C     2.08432   0.80452  -2.42805
N     2.48690   1.05275  -3.48649
C     2.57834   1.01279  -0.01997
O     2.35034   1.94397   0.71417
O     3.68908   0.29692  -0.04592
C     4.67612   0.58497   0.96349
C     0.19633   1.07868  -0.82787
C    -0.08772   2.45511  -1.02315
N    -0.30609   3.58250  -1.20942
C    -0.66055   0.15059  -0.35102
C    -2.01491   0.41764   0.16056
C    -3.15703  -0.20740  -0.36923
C    -4.41811   0.09185   0.14861
C    -4.55207   1.00247   1.20137
C    -3.41937   1.62763   1.73149
C    -2.15669   1.34301   1.21135
H     0.33948  -2.86678   3.68261
H    -0.24175  -1.20024   3.93228
H    -1.41362  -2.54796   3.84055
H    -1.39613  -2.37808   1.50181
H     0.46567  -3.01717  -2.53449
H    -0.45266  -1.56150  -2.92717
H    -1.30573  -3.15637  -2.81138
H     2.10703  -1.41496  -0.49447
H     4.25165   0.38893   1.95811
H     4.99703   1.63300   0.89095
H     5.51480  -0.09030   0.76317
H    -3.06962  -0.90333  -1.20300
H    -5.30207  -0.38839  -0.27648
H    -5.54122   1.22710   1.60684
H    -3.51785   2.33952   2.55389
H    -1.26718   1.81921   1.62858
