42
Generated by autodE on: 2022-05-31. E = -1215.917095 Ha. Imaginary frequency = -341.9 cm-1
C    -1.68366  -2.28224   3.17854
N    -1.37132  -2.04926   1.78277
C    -0.16236  -1.64591   1.39341
O     0.81171  -1.53339   2.15347
C     0.00860  -1.26032  -0.06382
C    -0.94131  -1.78272  -1.08682
C    -0.42968  -2.34173  -2.38704
O    -2.13827  -1.84473  -0.81843
N     1.31163  -0.97218  -0.30131
C     1.82110  -0.08552  -1.18142
C     1.40429   0.04818  -2.54220
N     1.10491   0.23255  -3.64994
C     3.17647   0.47766  -0.89514
O     3.75283   1.21235  -1.66879
O     3.61495   0.12366   0.30557
C     4.88035   0.66543   0.72784
C     0.34888   1.54225  -0.55895
C     0.98037   2.70325  -0.95225
N     1.55174   3.66320  -1.29621
C    -0.63550   0.95551  -0.03718
C    -1.92370   0.94600   0.59463
C    -3.09902   0.93661  -0.18226
C    -4.34362   0.92479   0.44633
C    -4.43031   0.91765   1.84275
C    -3.26429   0.92870   2.61661
C    -2.01456   0.93765   2.00106
H    -1.16241  -3.17520   3.55829
H    -1.38417  -1.42242   3.79693
H    -2.76499  -2.43336   3.27631
H    -2.11205  -2.02439   1.08177
H    -0.94751  -3.29885  -2.54833
H    -0.71049  -1.67200  -3.21312
H     0.65369  -2.50488  -2.40489
H     1.83229  -0.99501   0.59453
H     5.05529   0.26446   1.73180
H     4.82745   1.76269   0.75309
H     5.67473   0.34487   0.03977
H    -3.02440   0.93620  -1.27030
H    -5.25277   0.91882  -0.15892
H    -5.40831   0.90455   2.32900
H    -3.32807   0.92254   3.70679
H    -1.10048   0.93131   2.59693
