34
Generated by autodE on: 2022-06-02. E = -857.527439 Ha
C     3.19661   1.05195  -2.54068
N     2.24959   1.01553  -1.44124
C     2.29952   0.06347  -0.49959
O     3.14367  -0.83090  -0.48667
C     1.23722   0.19049   0.63767
C     1.77281   1.25505   1.62640
C     2.97803   0.88619   2.43786
O     1.21816   2.33323   1.71691
C    -0.06794   0.55790   0.10441
C    -1.20512   0.46481  -0.29817
C    -2.46753  -0.24148  -0.55244
C    -3.42471   0.03349   0.54223
N    -4.15790   0.21573   1.42062
C    -3.09261   0.14824  -1.83267
N    -3.56479   0.42596  -2.85345
C    -2.11937  -1.78283  -0.58244
C    -1.29238  -2.28079   0.61635
C     0.25828  -2.24321   0.51695
C     1.02935  -1.18769   1.33592
H     2.94813   1.89713  -3.19326
H     3.15366   0.12192  -3.12823
H     4.22698   1.17559  -2.17196
H     1.52812   1.72805  -1.38553
H     3.72625   0.35756   1.82996
H     2.66650   0.19404   3.23797
H     3.40855   1.78723   2.89310
H    -3.07822  -2.31819  -0.64025
H    -1.58074  -1.95671  -1.52559
H    -1.62872  -1.77798   1.53900
H    -1.58263  -3.33460   0.74116
H     0.62038  -3.21694   0.87982
H     0.56685  -2.19388  -0.54030
H     0.51410  -1.00868   2.29227
H     2.02886  -1.57675   1.56849
