40
Generated by autodE on: 2022-06-03. E = -3642.116218 Ha
C     4.70515  -0.44491  -1.56687
N     3.43753   0.02805  -1.04753
C     2.61807  -0.76492  -0.34307
O     2.84093  -1.95632  -0.10690
C     1.37167  -0.08416   0.16438
N     1.39919   1.11571   0.59016
C     0.07220   1.55479   1.01706
C     0.14908   2.15956   2.41581
C    -0.39855   2.64881   0.03860
O    -1.19460   3.51261   0.34152
O     0.12415   2.51192  -1.17228
C    -0.36463   3.39538  -2.19475
C    -0.89789   0.27678   0.90170
C    -2.19353   0.68921   0.18852
C    -3.33054   1.15669   1.05924
O    -2.26370   0.73461  -1.02378
C    -1.17156  -0.42703   2.28897
C    -2.07771  -1.62342   2.02129
C    -1.29535  -2.54472   1.44833
C     0.08094  -1.90841   1.38282
O     0.09046  -1.06425   2.53717
C     0.05389  -0.80482   0.26353
Br   -0.38126  -1.61036  -1.47867
H     5.44885  -0.57836  -0.76376
H     5.09074   0.28498  -2.28869
H     4.57223  -1.41302  -2.07138
H     3.18730   1.00755  -1.14284
H    -0.84566   2.47362   2.75653
H     0.56452   1.43140   3.12277
H     0.80675   3.04002   2.39703
H    -0.16768   4.44218  -1.92458
H    -1.44466   3.24355  -2.33237
H     0.17843   3.12673  -3.10770
H    -2.96327   1.74064   1.91500
H    -4.02010   1.75825   0.45351
H    -3.87962   0.29155   1.46116
H    -1.45482   0.23981   3.10578
H    -3.14860  -1.66254   2.21277
H    -1.56145  -3.52128   1.04765
H     0.96178  -2.55255   1.33269
