22
Generated by autodE on: 2022-06-03. E = -608.187902 Ha
C    -2.72088  -1.17108  -1.11828
N    -3.01527   0.25217  -1.07375
C    -2.43699   1.13716  -0.24477
O    -2.73898   2.33008  -0.15002
C    -1.40178   0.59432   0.65970
N    -0.19717   0.59406   0.62778
C     1.08826   0.47556   0.65552
C     1.97062   1.57147   1.17729
C     1.61491  -0.79913   0.14451
O     0.93473  -1.71520  -0.29504
O     2.95313  -0.84052   0.21535
C     3.58580  -2.03558  -0.26013
H    -3.03739  -1.56801  -2.09114
H    -1.64220  -1.35225  -1.01576
H    -3.24754  -1.72734  -0.32516
H    -3.80200   0.60922  -1.61134
H     1.36405   2.42462   1.50888
H     2.66836   1.91650   0.39774
H     2.57446   1.21368   2.02654
H     3.35475  -2.19802  -1.32310
H     3.25263  -2.90709   0.32218
H     4.66275  -1.88076  -0.12643
