61
Generated by autodE on: 2022-06-26. E = -1311.342095 Ha
C     2.55772   2.90427   2.39424
O     1.84317   1.82965   1.76397
C     2.16281   1.55876   0.50100
O     3.02795   2.15671  -0.10650
C     1.39724   0.34426  -0.05924
C     2.39630  -0.82137   0.13715
C     3.69875  -0.76641  -0.38537
C     4.59698  -1.81568  -0.17803
C     4.21669  -2.93510   0.56795
C     2.93085  -2.98763   1.11109
C     2.03195  -1.93786   0.90196
O     0.25077   0.11282   0.73889
C    -0.97827  -0.04046   0.01503
C    -1.85842   1.20562   0.27258
C    -3.15821   1.31110  -0.25033
C    -3.96022   2.41918   0.03109
C    -3.48923   3.44254   0.85957
C    -2.20932   3.33571   1.40712
C    -1.40560   2.22782   1.11904
C    -1.73615  -1.20764   0.67173
C    -1.42857  -1.56872   1.99242
C    -2.14405  -2.57333   2.65108
C    -3.19234  -3.23227   2.00482
C    -3.52065  -2.86803   0.69571
C    -2.80454  -1.86381   0.03967
C    -0.49891  -0.26824  -1.48134
C    -1.48355   0.17895  -2.56770
C    -0.20896  -1.76036  -1.73785
C     0.84318   0.57790  -1.52319
C     1.79370   0.13122  -2.63768
C     0.55732   2.07402  -1.77004
H     3.63547   2.68809   2.40952
H     2.16618   2.96660   3.41580
H     2.37950   3.84749   1.85868
H     4.02291   0.10601  -0.94974
H     5.60270  -1.75280  -0.60039
H     4.92009  -3.75511   0.73070
H     2.61967  -3.85022   1.70535
H     1.03320  -1.99030   1.32891
H    -3.56481   0.52251  -0.88013
H    -4.96391   2.47761  -0.39711
H    -4.11788   4.30804   1.08205
H    -1.82674   4.11853   2.06698
H    -0.41102   2.15783   1.55276
H    -0.62423  -1.05153   2.51302
H    -1.87941  -2.83672   3.67815
H    -3.75191  -4.01874   2.51666
H    -4.34063  -3.36879   0.17537
H    -3.08876  -1.60303  -0.97871
H    -2.36831  -0.47253  -2.58554
H    -1.82801   1.21147  -2.45423
H    -0.99860   0.08942  -3.55187
H     0.47762  -2.19922  -1.00590
H    -1.13398  -2.34723  -1.71902
H     0.22898  -1.88971  -2.73601
H     2.67423   0.78818  -2.66745
H     1.28443   0.22169  -3.60939
H     2.14540  -0.90016  -2.53176
H     0.05750   2.20623  -2.73771
H    -0.07457   2.52587  -0.99658
H     1.49666   2.63653  -1.81164
