18
Generated by autodE on: 2022-06-26. E = -235.968087 Ha
C     1.44256  -1.22783  -0.54471
C     0.64871   0.00770  -0.19387
C     1.47786   1.26259  -0.32579
C    -0.64896  -0.00777   0.19292
C    -1.47291  -1.26399   0.34344
C    -1.44738   1.22927   0.52760
H     0.86437  -2.15926  -0.51827
H     1.87382  -1.12870  -1.55690
H     2.30195  -1.34278   0.14043
H     1.82700   1.38774  -1.36673
H     0.95611   2.18166  -0.03318
H     2.39044   1.18313   0.29171
H    -0.91728  -2.19274   0.16684
H    -1.90293  -1.31789   1.35958
H    -2.33394  -1.24717  -0.34902
H    -1.78348   1.19964   1.57991
H    -0.90725   2.17109   0.37345
H    -2.36742   1.26556  -0.08276
