43
Generated by autodE on: 2022-06-26. E = -1075.306249 Ha
C     2.27676  -3.18999   2.85703
O     1.51883  -2.31181   2.02572
C     2.18957  -1.23993   1.51789
O     3.37067  -1.02702   1.80090
C     1.39159  -0.41804   0.65044
O     0.14098  -0.89883   0.46087
C    -0.97247  -0.44165  -0.04293
C    -1.14757   0.96992  -0.38904
C    -1.70516   1.33955  -1.62843
C    -1.80710   2.68478  -1.98042
C    -1.36933   3.67725  -1.09713
C    -0.83694   3.32004   0.14702
C    -0.71934   1.97767   0.49840
C    -2.00756  -1.45321  -0.19144
C    -3.35617  -1.09375  -0.41450
C    -4.33664  -2.07528  -0.54539
C    -4.00042  -3.43000  -0.44856
C    -2.66903  -3.79861  -0.21500
C    -1.68115  -2.82684  -0.09066
C     1.91109   0.75744  -0.04089
C     2.70618   1.70290   0.64077
C     3.16525   2.84884  -0.00779
C     2.84098   3.08149  -1.34907
C     2.07357   2.14030  -2.04479
C     1.62031   0.98961  -1.40320
H     2.66141  -2.66259   3.74321
H     1.58723  -3.98477   3.16776
H     3.12443  -3.62661   2.30679
H    -2.02169   0.56641  -2.33018
H    -2.22032   2.95985  -2.95324
H    -1.44373   4.73038  -1.37743
H    -0.50173   4.09243   0.84234
H    -0.29535   1.70388   1.46504
H    -3.63849  -0.04210  -0.46376
H    -5.37442  -1.77946  -0.71460
H    -4.77203  -4.19614  -0.55234
H    -2.39969  -4.85448  -0.13783
H    -0.64488  -3.11809   0.08275
H     2.93942   1.54283   1.69374
H     3.76663   3.57583   0.54356
H     3.18802   3.98778  -1.85062
H     1.82582   2.30388  -3.09618
H     1.03243   0.26047  -1.96178
