23
Generated by autodE on: 2022-06-17. E = -351.521382 Ha
C     3.68512   0.67347  -0.51500
C     2.58168  -0.01971  -0.15756
C     2.68139  -1.40992   0.41631
C     1.25850   0.57824  -0.32415
C     0.07843  -0.00968  -0.00375
C    -1.20777   0.63060  -0.18988
C    -2.42818   0.11653   0.10665
C    -2.65600  -1.24581   0.69793
C    -3.67831   0.91106  -0.14615
H     4.68719   0.25064  -0.40102
H     3.60913   1.68280  -0.93116
H     3.72818  -1.73747   0.48687
H     2.23498  -1.45703   1.42352
H     2.13203  -2.13671  -0.20495
H     1.24027   1.59033  -0.74611
H     0.08854  -1.01845   0.41783
H    -1.17581   1.64017  -0.61727
H    -1.73250  -1.81214   0.87447
H    -3.30578  -1.84563   0.03638
H    -3.19469  -1.15949   1.65819
H    -4.24456   1.05848   0.79114
H    -4.35609   0.36799  -0.82915
H    -3.46301   1.89796  -0.58141
