13
Generated by autodE on: 2022-06-17. E = -357.898974 Ha
C     3.12815   0.31293   0.75400
C     1.86402  -0.13461   0.13408
N     0.71241   0.36883   0.45157
C    -0.56254   0.04653  -0.03977
C    -1.67226   0.73489   0.46911
N    -2.60734   1.30474   0.88702
C    -0.70199  -0.94958  -1.01563
N    -0.80269  -1.78483  -1.83103
H     3.81836   0.67629  -0.02653
H     2.96614   1.10791   1.49612
H     3.62728  -0.54317   1.23960
H     1.87070  -0.92301  -0.62512
H     0.71248   1.10695   1.16285
