14
Generated by autodE on: 2022-06-24. E = -270.683214 Ha
C    -2.26429  -0.39263  -0.48866
C    -0.85886  -0.00171  -0.15667
C    -0.62593   1.45430   0.12881
C     0.12794  -0.93896  -0.12677
C     1.52931  -0.69062   0.17626
O     2.04461   0.39531   0.43218
H    -2.36833  -1.46619  -0.69807
H    -2.93645  -0.11937   0.34377
H    -2.61628   0.18257  -1.36317
H     0.06632   1.89009  -0.60991
H    -1.56830   2.01911   0.10405
H    -0.14631   1.59511   1.10974
H    -0.12590  -1.98051  -0.34455
H     2.16681  -1.60795   0.16310
