36
Generated by autodE on: 2022-07-27. E = -953.991041 Ha
C    -1.33616   3.18288   1.66280
N    -1.33486   1.93584   0.92490
C    -0.39851   0.98789   1.08202
O     0.52265   1.04031   1.90257
C    -0.55239  -0.22411   0.19760
N     0.52298  -0.79350  -0.31128
C     1.84875  -0.40618  -0.39604
C     2.83754  -1.44681  -0.57680
C     2.35281  -2.88667  -0.63649
O     4.04932  -1.21024  -0.69288
C     2.22160   1.00398  -0.39944
O     3.31355   1.46132  -0.10097
O     1.21798   1.79574  -0.84683
C     1.42192   3.20799  -0.75901
C    -1.85100  -0.86375  -0.01417
C    -2.10772  -1.59937  -1.19174
C    -3.32888  -2.24802  -1.36777
C    -4.31812  -2.16787  -0.38243
C    -4.07836  -1.43419   0.78484
C    -2.85989  -0.78522   0.97094
H    -2.28664   3.31345   2.20281
H    -0.51390   3.16744   2.38715
H    -1.20013   4.03746   0.98214
H    -2.04465   1.79588   0.21156
H     0.33929  -1.72254  -0.70050
H     3.22322  -3.53710  -0.78840
H     1.83834  -3.18279   0.29152
H     1.65287  -3.04658  -1.47511
H     1.59176   3.50892   0.28532
H     0.50496   3.67241  -1.14004
H     2.28151   3.51800  -1.37077
H    -1.36374  -1.63753  -1.99066
H    -3.51501  -2.80533  -2.28834
H    -5.27682  -2.67096  -0.52634
H    -4.84437  -1.37306   1.56088
H    -2.67830  -0.23817   1.89679
