50
Generated by autodE on: 2022-06-24. E = -1224.648740 Ha. Imaginary frequency = -335.3 cm-1
C    -1.84477   3.70676   0.39966
N    -1.72264   2.32077  -0.01101
C    -0.81971   1.49694   0.54537
O    -0.04416   1.87927   1.42473
C    -0.78746   0.08027  -0.04721
C    -2.08930  -0.49581  -0.48249
C    -2.20886  -1.32996  -1.61188
C    -3.42343  -1.93635  -1.93350
C    -4.55385  -1.72475  -1.13958
C    -4.45726  -0.88806  -0.02476
C    -3.24438  -0.27941   0.29748
N     0.28481  -0.17074  -0.88159
C     1.59254   0.04869  -0.57468
C     2.60711  -0.75737  -1.31535
C     2.13871  -1.96181  -2.08977
O     3.79195  -0.44569  -1.27445
C     2.08927   1.40528  -0.17061
O     2.97750   1.61255   0.62755
O     1.50313   2.36287  -0.89706
C     1.86121   3.71622  -0.57979
C     1.26801  -0.83966   1.59175
C     2.37443  -1.74303   1.35101
O     2.33085  -2.92207   0.98961
C    -0.12080  -1.16212   1.59364
C    -0.56274  -2.52600   1.11155
C    -0.92356  -0.66183   2.77854
H    -2.77025   4.11960  -0.01997
H    -1.88272   3.78029   1.49623
H    -0.99370   4.30990   0.04496
H    -2.33129   1.96934  -0.74245
H    -1.36414  -1.51707  -2.27689
H    -3.48402  -2.57482  -2.81758
H    -5.50359  -2.20061  -1.39346
H    -5.33239  -0.70332   0.60214
H    -3.20161   0.37334   1.16804
H     0.14858  -1.00273  -1.45093
H     3.01647  -2.47922  -2.49529
H     1.48741  -1.65832  -2.92630
H     1.57343  -2.65014  -1.44420
H     1.61678   3.93262   0.46930
H     1.26852   4.34958  -1.24926
H     2.93463   3.87926  -0.75165
H     1.55939   0.06967   2.11621
H     3.36551  -1.27157   1.54990
H    -0.15874  -3.30366   1.77965
H    -1.65859  -2.60576   1.12335
H    -0.20480  -2.75558   0.09918
H    -0.58992   0.32149   3.12754
H    -0.80042  -1.38292   3.60569
H    -1.99861  -0.62010   2.55614
