46
Generated by autodE on: 2022-05-30. E = -1441.242811 Ha
C    -2.48256   1.24922  -1.81833
C    -1.63830   1.45978  -0.58505
O    -1.70983   2.48491   0.06280
C    -0.80531   0.22339  -0.11719
C    -1.85143  -0.55764   0.68217
C    -2.40044   0.00801   1.84379
C    -3.35557  -0.68754   2.58602
C    -3.78669  -1.95176   2.16992
C    -3.25796  -2.50960   1.00365
C    -2.29852  -1.81536   0.25983
O    -0.46395  -0.54207  -1.27892
C     0.83065  -0.20558  -1.74051
C     1.32896  -1.32280  -2.65024
C     0.73467   1.03657  -2.56348
N     0.57191   1.94327  -3.26834
C     1.66174   0.05396  -0.44057
Cl    2.90662   1.32982  -0.82273
C     2.34875  -1.20088   0.14635
C     3.20609  -0.81142   1.37065
C     2.14375  -0.47837   2.45433
C     0.80831  -0.68046   1.70981
C     1.16231  -1.90011   0.83664
C     0.57584   0.45495   0.65157
C     0.75011   1.85470   1.22837
H    -2.88135   0.22736  -1.86903
H    -3.30075   1.98126  -1.80758
H    -1.87764   1.41342  -2.72187
H    -2.07790   0.99712   2.17212
H    -3.76643  -0.23753   3.49263
H    -4.53619  -2.49543   2.74968
H    -3.59301  -3.49269   0.66469
H    -1.89285  -2.25516  -0.65016
H     2.35440  -1.10819  -2.98120
H     1.30741  -2.27865  -2.11337
H     0.67735  -1.39530  -3.53188
H     2.90067  -1.77291  -0.60747
H     3.82033  -1.67571   1.66128
H     3.88677   0.02172   1.15919
H     2.26218   0.52267   2.88612
H     2.19191  -1.19509   3.28718
H    -0.04068  -0.79838   2.38915
H     0.37116  -2.22899   0.15666
H     1.49074  -2.76179   1.43617
H     0.62535   2.62987   0.46574
H     1.75533   1.96762   1.64995
H     0.02046   2.03453   2.02948
