26
Generated by autodE on: 2022-05-30. E = -669.324485 Ha
C    -2.02553   2.85695   0.24772
C    -0.62616   2.28716   0.24077
O     0.36541   3.00907   0.39820
C    -0.47364   0.85098   0.05687
O    -1.63004   0.22410  -0.09718
C    -2.03157  -1.01982  -0.13294
C    -3.47907  -1.24269  -0.40939
C    -1.15790  -2.09971   0.10870
N    -0.51709  -3.05217   0.33149
C     0.82431   0.17541  -0.02081
C     1.81054   0.41227   0.95654
C     3.06486  -0.18844   0.85181
C     3.35807  -1.02431  -0.23119
C     2.38998  -1.25497  -1.21426
C     1.13251  -0.66175  -1.11263
H    -2.58169   2.56365  -0.65569
H    -1.96005   3.95090   0.30651
H    -2.59053   2.47721   1.11405
H    -4.04311  -0.32900  -0.17318
H    -3.64762  -1.48959  -1.47312
H    -3.86651  -2.07803   0.19278
H     1.58292   1.06187   1.80219
H     3.81781  -0.00604   1.62199
H     4.34142  -1.49348  -0.31068
H     2.61661  -1.89835  -2.06737
H     0.38741  -0.83591  -1.89177
