26
Generated by autodE on: 2022-07-27. E = -669.319791 Ha
C    -0.44025   2.04367  -1.97832
C    -0.38409   1.60728  -0.52949
O    -0.69399   2.40939   0.35697
C    -0.14835   0.19733  -0.20708
O     0.52804  -0.59721  -1.04455
C     1.52919  -0.27090  -1.84172
C     1.88691  -1.25652  -2.89111
C     2.23576   0.92815  -1.64739
N     2.89428   1.88249  -1.48126
C    -0.71645  -0.50649   0.93070
C    -1.75388   0.04458   1.72020
C    -2.28795  -0.67453   2.78634
C    -1.81264  -1.95493   3.09414
C    -0.78774  -2.51243   2.32172
C    -0.23977  -1.79884   1.25869
H    -0.36356   1.22513  -2.70708
H    -1.40637   2.55582  -2.10721
H     0.35511   2.77732  -2.18351
H     2.95453  -1.18853  -3.14248
H     1.64859  -2.27057  -2.53421
H     1.30588  -1.07923  -3.81469
H    -2.14075   1.03494   1.48928
H    -3.09056  -0.23243   3.38124
H    -2.23535  -2.51204   3.93323
H    -0.40265  -3.50720   2.55769
H     0.57539  -2.23338   0.67914
