20
Generated by autodE on: 2022-05-30. E = -771.828691 Ha
C     2.10027  -1.07200  -0.68498
C     0.87426  -0.63043   0.03198
C     0.26930   0.57066   0.05894
Cl    0.76332   2.01282  -0.78994
C    -1.08203   0.45097   0.73725
C    -1.97900  -0.36350  -0.24968
C    -1.29930  -1.76446  -0.25300
C    -0.10133  -1.57422   0.73454
C    -0.73967  -0.63471   1.77821
H     2.60513  -0.22908  -1.17895
H     2.81375  -1.55625   0.00339
H     1.84758  -1.82271  -1.45482
H    -1.51866   1.39065   1.09695
H    -3.01075  -0.41690   0.12933
H    -2.00827   0.10551  -1.24375
H    -1.98203  -2.54189   0.12214
H    -0.95572  -2.07362  -1.25089
H     0.34211  -2.51070   1.09860
H    -0.02640  -0.28834   2.54045
H    -1.62974  -1.06385   2.26447
