20
Generated by autodE on: 2022-05-29. E = -1069.688666 Ha
F     2.13360   0.62889   0.77477
C     1.56949  -0.44075   0.19419
F     1.55835  -1.43282   1.11879
F     2.41198  -0.85239  -0.78022
C     0.20992  -0.18329  -0.33923
C    -0.63942   0.83538  -0.10750
Cl   -0.42331   2.24046   0.87371
C    -1.98622   0.48253  -0.70648
C    -2.55846  -0.64710   0.21248
C    -1.59878  -1.83960  -0.06227
C    -0.58962  -1.24135  -1.09416
C    -1.52381  -0.33973  -1.92688
H    -2.65721   1.33261  -0.87400
H    -3.58980  -0.87887  -0.09003
H    -2.57582  -0.33752   1.26690
H    -2.13249  -2.68974  -0.51172
H    -1.08528  -2.19814   0.83998
H     0.01705  -1.98026  -1.63144
H    -2.34456  -0.89368  -2.40608
H    -0.98796   0.26356  -2.67358
