33
Generated by autodE on: 2022-05-29. E = -1518.873881 Ha. Imaginary frequency = -478.8 cm-1
C     3.54442   1.92660  -1.49170
N     2.81304   0.72868  -1.11642
C     2.45979   0.50879   0.16021
O     2.80551   1.20830   1.10894
C     1.54662  -0.68599   0.36875
C     1.85566  -1.88370  -0.34719
N     2.12478  -2.83042  -0.96711
N     1.17459  -0.88798   1.67604
N     0.23747  -0.70118   2.33379
C    -1.23886  -0.02278   1.07799
Cl   -2.37668  -1.33437   1.34313
C    -1.55227   1.34494   1.66788
C    -2.63465   1.97373   0.74133
C    -1.84136   2.29091  -0.55800
C    -0.42123   1.71079  -0.25587
C    -0.29650   2.11597   1.23021
C    -0.56983   0.18879  -0.14850
C    -0.81923  -0.63389  -1.37830
F    -0.78513  -1.95544  -1.15210
F    -2.03052  -0.37882  -1.92447
F     0.08978  -0.36630  -2.34450
H     3.88734   1.81971  -2.52788
H     2.91108   2.82594  -1.41413
H     4.41628   2.05862  -0.83675
H     2.35996   0.19717  -1.85451
H    -1.79765   1.32594   2.73599
H    -3.47237   1.28223   0.57411
H    -3.03603   2.88553   1.20565
H    -2.29566   1.86718  -1.46013
H    -1.74094   3.37529  -0.70908
H     0.36133   2.05027  -0.94336
H    -0.40487   3.20116   1.36433
H     0.62586   1.78964   1.71980
