23
Generated by autodE on: 2022-06-04. E = -684.168751 Ha
C    -4.12140   0.34102   2.07932
O    -2.92096   0.62070   1.33042
C    -2.94426   0.31929   0.03618
O    -3.87647  -0.14944  -0.58080
C    -1.68751   0.71093  -0.60302
N    -0.65236   0.17565  -0.88950
C     0.54988  -0.25987  -1.12023
C     0.78326  -0.91361  -2.36517
N     0.99206  -1.45042  -3.37762
C     1.62416  -0.08320  -0.12776
C     1.34828   0.48638   1.12979
C     2.37320   0.65841   2.05906
C     3.68040   0.26179   1.75435
C     3.95673  -0.31034   0.50849
C     2.93872  -0.48335  -0.42952
H    -4.96810   0.90117   1.65847
H    -3.91415   0.67046   3.10320
H    -4.33910  -0.73594   2.05978
H     0.32966   0.78561   1.38491
H     2.14741   1.10128   3.03173
H     4.47939   0.39511   2.48697
H     4.97350  -0.62420   0.26193
H     3.16470  -0.92777  -1.40114
