19
Generated by autodE on: 2022-06-04. E = -995.131156 Ha
C     3.69327   1.02975  -0.00299
O     2.28086   1.05822   0.23665
C     1.60562  -0.08156   0.00248
O     2.13662  -1.10473  -0.39198
C     0.18146   0.08623   0.28041
C    -0.85209  -0.72649  -0.01171
Cl   -0.89380  -2.24471  -0.78714
C    -2.12994   0.05095   0.38225
C    -2.26074   1.21038  -0.63176
C    -1.24970   2.03212  -0.33711
C    -0.51294   1.35527   0.84053
O    -1.62489   0.74805   1.52857
H     3.90191   0.79092  -1.05621
H     4.17935   0.28247   0.64143
H     4.06162   2.03381   0.23743
H    -3.01704  -0.55221   0.60018
H    -3.00151   1.26204  -1.42844
H    -0.93237   2.95243  -0.82589
H     0.09120   1.98593   1.49889
