62
Generated by autodE on: 2022-06-09. E = -1532.078100 Ha
C    -2.74745  -3.01964   3.28397
N    -2.37805  -2.52541   1.97184
C    -1.29421  -1.75625   1.78518
O    -0.52573  -1.47306   2.71451
C    -1.10718  -1.11394   0.38142
C    -1.69436  -1.95708  -0.74246
C    -1.33276  -3.31088  -0.84596
C    -1.77481  -4.08655  -1.91858
C    -2.58639  -3.51978  -2.90803
C    -2.94089  -2.17167  -2.81789
C    -2.49247  -1.39397  -1.74480
C     0.41334  -0.88111   0.16555
C     0.88414  -0.80336  -1.31949
O     0.55640   0.53547  -1.69830
C     1.30971   1.17909  -0.66828
C     2.67821   0.51741  -0.83430
C     3.93039   1.17450  -0.41232
O     5.04592   0.94297  -0.83601
O     3.67012   2.11036   0.51024
C     4.78968   2.85192   1.01667
C     2.40823  -0.74547  -1.24453
C     3.19030  -1.99927  -1.35282
C     4.67852  -1.97276  -1.51916
O     2.56341  -3.05454  -1.29840
C     0.69410   0.57458   0.63003
C    -0.68677   1.14495   1.03914
C    -0.89055   2.59636   0.65895
C    -1.43469   2.96302  -0.58006
C    -1.54694   4.31014  -0.93481
C    -1.10970   5.30889  -0.05822
C    -0.56530   4.95085   1.17948
C    -0.46213   3.60306   1.53503
N    -1.66504   0.24635   0.43214
C    -3.00812   0.40105   0.96044
H    -3.63671  -3.65457   3.18816
H    -1.93215  -3.61394   3.72477
H    -2.97406  -2.19072   3.97440
H    -2.98845  -2.70983   1.18315
H    -0.68302  -3.75767  -0.09001
H    -1.48076  -5.13671  -1.98549
H    -2.93512  -4.12651  -3.74708
H    -3.56689  -1.71694  -3.58954
H    -2.75206  -0.33708  -1.68903
H     0.98671  -1.63959   0.70565
H     0.46367  -1.53713  -2.00971
H     1.28070   2.26762  -0.75963
H     5.28873   3.39439   0.20093
H     5.50910   2.17606   1.50091
H     4.37739   3.55673   1.74743
H     5.14472  -1.55856  -0.61170
H     5.04273  -2.99342  -1.69404
H     4.96509  -1.30968  -2.34825
H     1.39939   0.64786   1.46400
H    -0.74140   1.08290   2.14389
H    -1.76464   2.18113  -1.26519
H    -1.97625   4.58192  -1.90247
H    -1.19646   6.36194  -0.33671
H    -0.22482   5.72400   1.87274
H    -0.04193   3.32405   2.50525
H    -3.05766   0.28310   2.06289
H    -3.68961  -0.33092   0.50659
H    -3.38530   1.40554   0.71771
