38
Generated by autodE on: 2022-07-27. E = -843.750326 Ha
C    -0.44396  -3.26233   2.98761
N    -0.17208  -2.74274   1.66569
C    -0.31028  -1.40905   1.38758
O    -0.49770  -0.61262   2.34018
C    -0.23234  -0.99952  -0.00671
C    -0.18784  -1.91457  -1.15184
C    -1.00445  -3.06686  -1.24711
C    -0.93239  -3.91935  -2.34934
C    -0.06360  -3.64143  -3.41061
C     0.73722  -2.49555  -3.34815
C     0.68388  -1.65384  -2.23732
N    -0.15943   0.37743  -0.26324
C    -0.98282   0.91738  -1.35854
C     0.54392   1.17243   0.52963
C     0.49385   2.61015   0.68729
C    -0.56656   3.46625   0.30260
C    -0.48750   4.83876   0.53172
C     0.63816   5.39959   1.14533
C     1.68765   4.56639   1.55048
C     1.61236   3.19403   1.33419
H    -0.17592  -4.32674   3.01321
H     0.15011  -2.73371   3.74877
H    -1.50722  -3.16624   3.27272
H    -0.09705  -3.40200   0.90186
H    -1.72579  -3.28332  -0.45720
H    -1.57927  -4.79966  -2.38813
H    -0.01538  -4.30575  -4.27640
H     1.42216  -2.26154  -4.16740
H     1.33386  -0.77655  -2.19900
H    -0.49512   1.78902  -1.80903
H    -1.11375   0.14396  -2.11945
H    -1.97392   1.19374  -0.97334
H     1.26488   0.65426   1.15993
H    -1.47126   3.06568  -0.14788
H    -1.32135   5.47828   0.23296
H     0.69175   6.47694   1.31718
H     2.56630   4.98983   2.04248
H     2.42971   2.54665   1.66086
