62
Generated by autodE on: 2022-06-09. E = -1531.976502 Ha. Imaginary frequency = -222.7 cm-1
C    -0.64729  -3.97092   3.02297
N    -1.09443  -3.32468   1.80836
C    -1.39434  -1.99465   1.79029
O    -1.40823  -1.36172   2.86687
C    -1.68007  -1.40566   0.46532
C    -2.17898  -2.30276  -0.61451
C    -3.16404  -3.27427  -0.33771
C    -3.64446  -4.12271  -1.33619
C    -3.16078  -4.01677  -2.64410
C    -2.19953  -3.04632  -2.94149
C    -1.71657  -2.20035  -1.94183
C     0.91239  -1.07394   0.51749
C     1.28565  -1.17660  -0.96640
O     0.68178   0.01856  -1.48751
C     1.31681   0.91344  -0.56536
C     2.79825   0.54454  -0.81748
C     3.89167   1.50355  -0.59146
O     5.01224   1.45755  -1.06330
O     3.47514   2.48926   0.21879
C     4.42635   3.51520   0.53432
C     2.78066  -0.78729  -1.06980
C     3.80526  -1.84819  -1.16182
C     5.23440  -1.51871  -1.47128
O     3.43681  -3.00587  -0.97283
C     0.93671   0.27692   0.78573
C    -1.24478   0.85029   1.13423
C    -1.28303   2.30935   1.03299
C    -1.26198   3.06083  -0.16497
C    -1.19598   4.45467  -0.13385
C    -1.13912   5.14105   1.08320
C    -1.13674   4.41390   2.27874
C    -1.20214   3.02218   2.25194
N    -1.87895  -0.04257   0.32783
C    -2.65051   0.44542  -0.82577
H    -0.48826  -5.03749   2.81784
H    -1.39719  -3.87790   3.82375
H     0.29764  -3.54045   3.39960
H    -0.96030  -3.80681   0.92807
H    -3.56466  -3.35892   0.67337
H    -4.40989  -4.86341  -1.09230
H    -3.53586  -4.68067  -3.42652
H    -1.81944  -2.94520  -3.96096
H    -0.98357  -1.43881  -2.19732
H     1.06679  -1.89112   1.21729
H     0.99187  -2.07448  -1.51598
H     1.04363   1.95754  -0.73899
H     3.90656   4.21348   1.20011
H     5.30195   3.08456   1.04129
H     4.75137   4.03075  -0.38103
H     5.66608  -0.93083  -0.64652
H     5.80105  -2.44951  -1.60413
H     5.30257  -0.89007  -2.37091
H     1.19132   0.75059   1.73171
H    -1.06241   0.46830   2.12966
H    -1.26925   2.56261  -1.13211
H    -1.17938   5.00953  -1.07504
H    -1.08741   6.23210   1.09957
H    -1.08338   4.93465   3.23788
H    -1.19358   2.46135   3.18973
H    -2.01749   0.60340  -1.70721
H    -3.42829  -0.28306  -1.07052
H    -3.13525   1.38741  -0.55150
