17
Generated by autodE on: 2022-05-25. E = -372.136029 Ha
F     1.34440   1.29400   1.38319
C     0.78724   0.39052   0.56246
C     0.63411  -0.92093   0.77762
C    -0.22536  -1.41017  -0.38464
C    -1.66293  -0.83861  -0.15224
C    -1.46424   0.69250  -0.35767
C     0.06040   0.80577  -0.69372
C     0.26133  -0.48165  -1.52170
H     0.91579  -1.49189   1.66255
H    -0.19221  -2.49058  -0.57566
H    -2.36376  -1.25234  -0.89337
H    -2.04321  -1.09107   0.84792
H    -2.06106   1.06495  -1.20349
H    -1.72876   1.28669   0.52877
H     0.37471   1.76231  -1.12969
H     1.31155  -0.65474  -1.79862
H    -0.37491  -0.52071  -2.41961
