20
Generated by autodE on: 2022-06-21. E = -457.715325 Ha
C    -3.07016   0.58602  -0.57328
N    -1.82805   0.09680   0.00211
C    -1.85166  -0.55935   1.23936
C    -0.73586  -0.96507   1.86582
C     0.64882  -0.75187   1.30539
C     0.57541  -0.02810  -0.02922
C     1.79211   0.29914  -0.78929
N     2.96723  -0.06706  -0.21822
O     1.77870   0.87563  -1.89614
C    -0.61807   0.34165  -0.57385
H    -3.80522  -0.22919  -0.66195
H    -3.51271   1.38506   0.04516
H    -2.87207   0.98825  -1.57474
H    -2.84821  -0.71983   1.65481
H    -0.83602  -1.47721   2.82554
H     1.26920  -0.18555   2.03028
H     1.17037  -1.72518   1.19877
H     3.01924  -0.51992   0.68526
H     3.83083   0.14839  -0.70404
H    -0.64060   0.86335  -1.53188
