19
Generated by autodE on: 2022-06-10. E = -552.524652 Ha
C     2.75257  -0.70351   0.01509
C     1.45894  -1.07187  -0.65111
O     1.34366  -2.05344  -1.37631
C     0.26847  -0.22957  -0.41654
C     0.02021   0.77230   0.45769
C     0.85241   1.38218   1.41872
N     1.51206   1.91120   2.22032
C    -1.49503   1.10363   0.25824
C    -2.27739  -0.10723   0.80579
C    -2.02677  -1.09473  -0.05828
C    -1.09132  -0.47107  -1.11404
O    -1.58712   0.87848  -1.15061
H     2.64895  -0.80165   1.10827
H     3.55138  -1.36873  -0.33659
H     3.01301   0.34586  -0.19321
H    -1.81120   2.10779   0.55594
H    -2.84599  -0.11291   1.73448
H    -2.33120  -2.14012  -0.03621
H    -1.04653  -0.93521  -2.10309
