39
Generated by autodE on: 2022-06-10. E = -919.771114 Ha
N     0.74605  -2.67346  -1.70568
C     1.00855  -1.70933  -1.09293
C     1.38661  -0.56605  -0.37270
N     0.44653   0.38846  -0.05380
C    -0.88374   0.36956  -0.00535
C    -1.63169  -0.89960  -0.01083
C    -2.74870  -1.06370  -0.85017
C    -3.48172  -2.25093  -0.82873
C    -3.11918  -3.28534   0.03962
C    -2.01523  -3.12707   0.88539
C    -1.27258  -1.94810   0.85823
C    -1.57534   1.65800   0.07793
C    -0.98734   2.84239  -0.42031
C    -1.63319   4.07093  -0.28268
C    -2.88506   4.14550   0.33590
C    -3.48730   2.97702   0.81852
C    -2.84464   1.74785   0.69215
C     2.78031  -0.34238  -0.01024
C     3.80561  -1.14390  -0.56762
C     5.14281  -0.92383  -0.24846
C     5.50910   0.10403   0.63052
C     4.50748   0.89794   1.19714
C     3.16279   0.67439   0.89632
H     0.86092   1.30051   0.15533
H    -3.03502  -0.25662  -1.52700
H    -4.34043  -2.36840  -1.49366
H    -3.69528  -4.21328   0.05829
H    -1.73138  -3.92845   1.57131
H    -0.41216  -1.83350   1.52055
H    -0.03310   2.80190  -0.95065
H    -1.16281   4.97335  -0.67974
H    -3.39334   5.10723   0.43474
H    -4.46418   3.02594   1.30503
H    -3.31580   0.84847   1.09029
H     3.54292  -1.94099  -1.26642
H     5.91069  -1.55900  -0.69737
H     6.55921   0.27596   0.87637
H     4.77044   1.69339   1.89897
H     2.41008   1.28501   1.39998
