39
Generated by autodE on: 2022-07-27. E = -919.771093 Ha
N     1.16804  -0.30892  -3.02170
C     1.27388  -0.21635  -1.85808
C     1.46387  -0.11335  -0.47166
N     0.38892  -0.23571   0.38046
C    -0.92667  -0.14370   0.19849
C    -1.48920   0.45692  -1.02332
C    -2.54156  -0.17595  -1.70982
C    -3.10050   0.41203  -2.84524
C    -2.62710   1.64537  -3.30380
C    -1.58679   2.28686  -2.62164
C    -1.01707   1.69727  -1.49482
C    -1.79298  -0.64049   1.26986
C    -3.08494  -0.09801   1.45157
C    -3.89730  -0.53183   2.49642
C    -3.44585  -1.51583   3.38455
C    -2.17279  -2.06812   3.21238
C    -1.35689  -1.64489   2.16330
C     2.79940   0.05862   0.08573
C     3.00448   0.38024   1.44816
C     4.29331   0.49972   1.97077
C     5.41511   0.33099   1.15363
C     5.22678   0.03763  -0.20347
C     3.94538  -0.09985  -0.73034
H     0.66499  -0.47644   1.33605
H    -2.91453  -1.13764  -1.35274
H    -3.91021  -0.09571  -3.37426
H    -3.06725   2.10675  -4.19077
H    -1.21739   3.25395  -2.97027
H    -0.20490   2.20359  -0.96932
H    -3.44093   0.68385   0.77969
H    -4.88947  -0.09295   2.62453
H    -4.08680  -1.85538   4.20122
H    -1.81779  -2.84949   3.88821
H    -0.38647  -2.12598   2.02016
H     2.15601   0.56796   2.10989
H     4.41794   0.74610   3.02825
H     6.42170   0.43529   1.56427
H     6.09097  -0.09268  -0.85979
H     3.82138  -0.34357  -1.78766
