36
Generated by autodE on: 2022-05-29. E = -1007.324449 Ha
C    -2.27597  -1.92067  -0.79443
C    -1.10696  -1.79601   0.18508
C     0.22739  -1.48827  -0.51007
C     1.49299  -2.17778   0.06645
C     1.52222  -2.10590   1.60409
C     1.79650  -0.59963   1.86996
C     1.89031   0.01502   0.45177
C     2.58168  -1.15509  -0.29114
C     0.50136   0.04080  -0.26857
C     0.57933   0.90073  -1.53625
F     0.52284   2.21397  -1.21654
F    -0.43694   0.65668  -2.38616
F     1.70544   0.73281  -2.24118
C    -0.73184   0.51559   0.60926
C    -1.82215   1.21952  -0.14803
N    -2.76855   1.71406  -0.60031
C    -0.34226   1.51449   1.63501
N    -0.08185   2.33735   2.40808
N    -1.21983  -0.71643   1.18544
C    -2.42058  -0.65015   1.99712
H    -2.12149  -2.81375  -1.41931
H    -3.23285  -2.04291  -0.26568
H    -2.35527  -1.05393  -1.46629
H    -1.03608  -2.73926   0.74836
H     0.15894  -1.70429  -1.58388
H     1.62672  -3.18985  -0.33837
H     2.34191  -2.73312   1.98485
H     0.59576  -2.45693   2.07463
H     1.04192  -0.14229   2.51645
H     2.76836  -0.44826   2.36201
H     2.39494   0.98915   0.42725
H     3.55766  -1.39340   0.15697
H     2.71281  -1.00741  -1.36767
H    -2.27676   0.06640   2.82036
H    -2.60088  -1.64114   2.43735
H    -3.32433  -0.35087   1.43331
