20
Generated by autodE on: 2022-05-29. E = -610.059754 Ha
F     2.36601  -0.15526  -0.61576
C     1.47219   0.11667   0.36352
F     1.92392  -0.47968   1.48195
F     1.54767   1.45483   0.57107
C     0.10047  -0.30503  -0.00222
C    -0.73767  -1.06802   0.71918
C    -2.07770  -1.03888   0.01069
C    -2.64023   0.40626   0.23764
C    -1.67016   1.29456  -0.59300
C    -0.66954   0.25267  -1.18971
C    -1.61931  -0.93342  -1.46157
H    -0.53990  -1.52499   1.68999
H    -2.77628  -1.84356   0.27089
H    -3.66962   0.46844  -0.14539
H    -2.66165   0.67179   1.30416
H    -2.19903   1.81399  -1.40574
H    -1.15039   2.05090   0.01119
H    -0.05981   0.62173  -2.02358
H    -2.43721  -0.68386  -2.15469
H    -1.09240  -1.83292  -1.81265
