54
Generated by autodE on: 2022-10-23. E = -1918.621900 Ha
C     3.26546  -1.59666   3.14175
O     2.21442  -1.02268   2.33983
C     2.54100  -0.00184   1.58020
O     3.62646   0.53030   1.53230
C     1.35510   0.51700   0.73144
C     1.37763   1.98955   0.90098
N     1.41894   3.12276   1.13772
O     0.14199  -0.01058   1.17888
C    -0.81920  -0.05904   0.10021
C    -1.94950  -0.98900   0.53224
C    -3.11063  -1.05611  -0.24916
C    -4.15590  -1.90303   0.11714
C    -4.05803  -2.67852   1.27808
C    -2.90879  -2.59808   2.06725
C    -1.85428  -1.75787   1.69592
C    -1.39258   1.38448  -0.01370
C    -2.25273   1.74243   1.04603
C    -2.74716   3.03738   1.17958
C    -2.39767   4.02206   0.25022
C    -1.53548   3.68927  -0.79200
C    -1.02793   2.39137  -0.91723
C     0.10279  -0.69136  -1.04999
C    -0.42420  -0.61735  -2.51863
F     0.55731  -0.86402  -3.40054
F    -1.37471  -1.54476  -2.73424
F    -0.96959   0.54743  -2.85890
C     0.34572  -2.22927  -0.77468
F     0.92649  -2.44699   0.40519
F    -0.76797  -2.96889  -0.79817
F     1.14604  -2.74758  -1.72317
C     1.50909   0.06507  -0.81983
O     2.62907  -0.74733  -0.84223
C     3.35217  -0.99876  -2.05590
O     1.55445   1.10270  -1.71750
C     2.71042   1.95927  -1.74576
H     4.07055  -1.96617   2.49170
H     2.80204  -2.42365   3.68995
H     3.66206  -0.84425   3.83725
H    -3.19965  -0.43895  -1.14465
H    -5.05437  -1.95212  -0.50219
H    -4.87935  -3.33789   1.56814
H    -2.82711  -3.19278   2.98001
H    -0.95601  -1.70591   2.30929
H    -2.53585   0.99821   1.78965
H    -3.40978   3.27574   2.01467
H    -2.78766   5.03803   0.34610
H    -1.23104   4.44672  -1.51785
H    -0.31765   2.20197  -1.70956
H     2.79253  -0.68766  -2.94364
H     3.54587  -2.07773  -2.10592
H     4.30734  -0.45620  -2.01448
H     3.38598   1.75889  -0.90497
H     3.24611   1.79489  -2.69081
H     2.35748   2.99721  -1.69635
