20
Generated by autodE on: 2022-10-23. E = -982.176473 Ha
C     2.93912   0.10241   0.07252
O     2.00379   1.05943  -0.46207
C     0.71393   1.03221  -0.18711
O     0.15409   2.22955  -0.12185
C     0.97973   3.38559   0.11459
C    -0.08207  -0.07497   0.00517
C     0.25103  -1.42576  -0.52771
F    -0.84197  -2.03161  -1.04392
F     1.15917  -1.37334  -1.52391
F     0.74831  -2.29126   0.39040
C    -1.43279   0.08863   0.62480
F    -1.85946  -1.07475   1.16637
F    -1.44458   0.99581   1.62024
F    -2.40026   0.47342  -0.24265
H     3.22463  -0.61347  -0.70652
H     2.50228  -0.42211   0.93238
H     3.81598   0.68068   0.39034
H     0.27920   4.20710   0.30314
H     1.62344   3.22710   0.99100
H     1.59251   3.60799  -0.76908
