54
Generated by autodE on: 2022-10-23. E = -1918.575075 Ha. Imaginary frequency = -351.2 cm-1
C     3.21193  -2.00111   2.66575
O     2.12137  -1.23026   2.13934
C     2.41395  -0.01591   1.68918
O     3.51410   0.50173   1.77499
C     1.27422   0.65119   1.01115
C     1.33471   2.08000   1.08836
N     1.43979   3.23816   1.13261
O     0.07567   0.02944   1.22142
C    -1.02931   0.13928   0.49085
C    -1.95482  -0.98197   0.72089
C    -3.15561  -1.07743  -0.01056
C    -4.01216  -2.15797   0.18136
C    -3.69276  -3.15248   1.11194
C    -2.50829  -3.06034   1.85150
C    -1.64180  -1.98838   1.65652
C    -1.61115   1.48677   0.19376
C    -2.78973   1.82278   0.89728
C    -3.36869   3.08315   0.76077
C    -2.79320   4.03198  -0.08866
C    -1.62529   3.71304  -0.78399
C    -1.03502   2.45761  -0.63876
C     0.32381  -0.47369  -1.43888
C    -0.45182  -0.07652  -2.67897
F    -0.23704   1.16803  -3.11750
F    -1.78862  -0.19443  -2.52157
F    -0.14057  -0.89218  -3.72361
C     0.31544  -1.97881  -1.26907
F     0.69022  -2.37259  -0.04397
F    -0.90465  -2.50164  -1.50341
F     1.14696  -2.62632  -2.13000
C     1.59971   0.14848  -1.12640
O     2.66892  -0.64863  -0.86222
C     3.48549  -1.05017  -1.98828
O     1.84809   1.33385  -1.69335
C     3.11753   1.98568  -1.50049
H     3.98264  -2.14000   1.89409
H     2.78322  -2.96731   2.95432
H     3.65141  -1.50140   3.54060
H    -3.40631  -0.31533  -0.74601
H    -4.93450  -2.22529  -0.39922
H    -4.36828  -3.99749   1.26340
H    -2.25965  -3.82914   2.58615
H    -0.72032  -1.91905   2.23220
H    -3.24426   1.09970   1.57364
H    -4.27452   3.32147   1.32238
H    -3.25184   5.01653  -0.20500
H    -1.16054   4.44656  -1.44601
H    -0.12150   2.25237  -1.18380
H     2.94132  -0.92964  -2.93447
H     3.73402  -2.10787  -1.83835
H     4.40592  -0.45067  -2.00217
H     3.60149   1.65332  -0.57523
H     3.76405   1.77425  -2.36341
H     2.90682   3.05977  -1.44905
