46
Generated by autodE on: 2022-06-06. E = -3973.823923 Ha
C     0.10082  -1.74174  -2.50310
C    -0.99689  -0.65202  -2.46031
C    -2.27281  -1.39415  -2.92513
C    -0.77846   0.51650  -3.50581
C    -0.51540   1.93940  -2.99941
C     0.94488   2.24573  -2.65352
C     1.70145   1.14312  -1.91421
C     1.24365   0.84619  -0.48830
Cl    1.69124   2.32606   0.49569
Br    2.43299  -0.64103   0.20045
C    -0.19643   0.47283  -0.21162
C    -1.10418  -0.10986  -1.03146
C    -2.46468  -0.12742  -0.28211
C    -3.48784   0.64874  -1.03760
N    -4.26328   1.32935  -1.56659
C    -2.96917  -1.50348  -0.04918
N    -3.34479  -2.56133   0.24125
N    -2.21985   0.55411   0.97760
C    -0.78227   0.77854   1.16334
C    -0.18549  -0.04269   2.29672
C    -0.29828  -1.44086   2.31215
C     0.24579  -2.18336   3.35989
C     0.91487  -1.53695   4.40608
C     1.02833  -0.14455   4.39928
C     0.47715   0.59738   3.34985
H     0.22475  -2.09493  -3.53800
H     1.07898  -1.42486  -2.13186
H    -0.20839  -2.59820  -1.88475
H    -2.47798  -2.29158  -2.32836
H    -3.16604  -0.75659  -2.93756
H    -2.10610  -1.72657  -3.96021
H     0.02649   0.21488  -4.19593
H    -1.69250   0.56139  -4.11387
H    -0.82114   2.63909  -3.79367
H    -1.17443   2.16389  -2.14710
H     1.50070   2.40282  -3.59269
H     1.01231   3.19015  -2.09169
H     1.66555   0.22126  -2.50195
H     2.76384   1.41391  -1.84597
H    -2.66145   0.08728   1.76562
H    -0.61468   1.83678   1.39952
H    -0.79985  -1.95827   1.49217
H     0.15455  -3.27220   3.35795
H     1.34434  -2.11910   5.22504
H     1.54463   0.36811   5.21452
H     0.56812   1.68566   3.34408
