20
Generated by autodE on: 2022-07-27. E = -549.728814 Ha
N    -2.65078   1.87496  -2.32256
C    -2.18046   0.84102  -2.03808
C    -1.60508  -0.38884  -1.68459
C    -2.00833  -1.58283  -2.30165
N    -2.35176  -2.57390  -2.82315
N    -0.61569  -0.44030  -0.70232
C    -0.11199   0.53803   0.00222
C     0.92448   0.38007   0.99792
C     1.55160  -0.85317   1.28290
C     2.53843  -0.92724   2.26075
C     2.92015   0.21995   2.97018
C     2.30863   1.44695   2.69393
C     1.31970   1.52935   1.71542
H    -0.25481  -1.38278  -0.53008
H    -0.51328   1.53709  -0.18400
H     1.27449  -1.75911   0.73783
H     3.01751  -1.88550   2.47248
H     3.69580   0.15438   3.73643
H     2.60392   2.34327   3.24351
H     0.83841   2.48542   1.49716
