46
Generated by autodE on: 2022-06-06. E = -3973.754252 Ha. Imaginary frequency = -308.4 cm-1
C    -0.82369  -2.11268  -3.24119
C    -1.19071  -0.64896  -2.93236
C    -2.66218  -0.39405  -3.30158
C    -0.30460   0.29397  -3.80336
C    -0.31443   1.76903  -3.36150
C     1.02649   2.27757  -2.81290
C     1.79242   1.37344  -1.84076
C     1.10379   0.98109  -0.52861
Cl    0.68653   2.51380   0.38926
Br    2.52749  -0.00086   0.52517
C    -0.09057   0.14255  -0.64484
C    -0.86087  -0.35511  -1.50375
C    -2.59033  -1.15045  -0.14342
C    -3.35066   0.04574  -0.31044
N    -3.93730   1.04495  -0.43147
C    -3.14763  -2.36499  -0.63049
N    -3.57839  -3.36820  -1.03924
N    -1.79419  -1.24316   0.98501
C    -1.04707  -0.21263   1.39764
C    -0.11533  -0.37462   2.51314
C     0.48234  -1.61178   2.82220
C     1.37228  -1.71596   3.88708
C     1.68675  -0.58829   4.65627
C     1.09519   0.64283   4.36039
C     0.19914   0.74948   3.29717
H    -0.96152  -2.30696  -4.31671
H    -1.45817  -2.81490  -2.68317
H     0.22749  -2.31444  -2.98558
H    -2.78841  -0.57816  -4.37910
H    -2.96178   0.64205  -3.09356
H    -3.35229  -1.06616  -2.77613
H     0.72294  -0.09952  -3.80398
H    -0.66438   0.19435  -4.83902
H    -1.09896   1.92449  -2.60452
H    -0.59284   2.41434  -4.20917
H     1.71743   2.43817  -3.65800
H     0.87812   3.26485  -2.34797
H     2.73424   1.87514  -1.57662
H     2.06800   0.42866  -2.33153
H    -1.49334  -2.18700   1.22733
H    -1.47328   0.77904   1.24673
H     0.28251  -2.49619   2.21269
H     1.83599  -2.67884   4.11263
H     2.39296  -0.67217   5.48565
H     1.33288   1.52432   4.96009
H    -0.26138   1.70992   3.06258
