55
Generated by autodE on: 2022-06-28. E = -1547.502117 Ha
C    -2.36130  -4.75759   1.07450
O    -1.95897  -3.41506   1.39811
C    -1.98404  -2.53078   0.41315
O    -2.43036  -2.71137  -0.69190
C    -1.47723  -1.14618   0.91398
C    -2.25571  -0.86355   2.14590
N    -2.92697  -0.64441   3.06532
O    -1.79956  -0.18533  -0.05658
C    -0.74811   0.75698  -0.30053
C    -0.20689   0.51193  -1.73339
C    -1.09079  -0.23964  -2.67573
O     0.87726   0.95930  -2.05782
C    -1.34167   2.16543  -0.30544
C    -2.65709   2.37210   0.13025
C    -3.19431   3.66192   0.16096
C    -2.42576   4.75616  -0.24382
C    -1.11342   4.55290  -0.68212
C    -0.57422   3.26593  -0.71835
C     0.29724   0.49773   0.86747
C    -0.03526   1.37264   2.08570
C     1.74991   0.82547   0.48282
O     2.21463   1.93165   0.71452
C     2.60615  -0.21642  -0.11625
O     3.87757   0.08618  -0.42985
C     4.18550   1.25354  -1.21382
C     2.15379  -1.49342  -0.31589
O     2.80990  -2.46446  -0.96510
C     3.66348  -2.14347  -2.07404
C     0.82135  -1.91847   0.15219
O     0.37636  -3.00309  -0.18768
C     0.07077  -1.02484   1.14902
C     0.52243  -1.50705   2.53784
H    -3.39277  -4.76506   0.69645
H    -2.28993  -5.32543   2.00839
H    -1.68154  -5.17477   0.31800
H    -1.14209  -1.29186  -2.35452
H    -2.11940   0.14853  -2.63793
H    -0.68321  -0.17302  -3.69214
H    -3.25776   1.52279   0.45306
H    -4.22090   3.80886   0.50455
H    -2.84729   5.76371  -0.22022
H    -0.50321   5.40099  -1.00090
H     0.44984   3.12012  -1.06090
H    -1.07197   1.24719   2.41554
H     0.11329   2.42710   1.83530
H     0.63318   1.12939   2.92132
H     5.05680   0.98453  -1.82658
H     3.34537   1.51848  -1.86851
H     4.43659   2.10095  -0.56325
H     3.71658  -3.05775  -2.67969
H     3.22832  -1.32841  -2.67177
H     4.66908  -1.86270  -1.73564
H     0.32541  -2.58297   2.63576
H    -0.00939  -0.98167   3.33995
H     1.60035  -1.33391   2.66061
