29
Generated by autodE on: 2022-06-28. E = -857.973417 Ha
C     3.97533  -0.73636  -1.76570
O     2.74519  -0.39392  -1.11709
C     2.82266   0.52820  -0.13811
O     3.87063   1.06929   0.19784
C     1.55016   0.82006   0.47500
C     1.44983   1.71491   1.54727
N     1.37110   2.45635   2.45005
O     0.48060   0.11821   0.00764
C    -0.77299   0.13128   0.27912
C    -1.35273   1.13490   1.26835
C    -1.53519   2.52885   0.76177
O    -1.69813   0.73599   2.36115
C    -1.60280  -0.83614  -0.39385
C    -1.03040  -1.74463  -1.31695
C    -1.83551  -2.66913  -1.96850
C    -3.21462  -2.70701  -1.71467
C    -3.78838  -1.81297  -0.80424
C    -2.99381  -0.87991  -0.14437
H     3.71816  -1.48666  -2.52255
H     4.69209  -1.15794  -1.04559
H     4.42168   0.14656  -2.24644
H    -2.48494   2.53779   0.19655
H    -0.73802   2.82382   0.06458
H    -1.60579   3.23024   1.60417
H     0.04253  -1.70980  -1.50862
H    -1.39118  -3.36893  -2.67909
H    -3.84240  -3.43777  -2.22925
H    -4.86161  -1.84422  -0.60716
H    -3.45050  -0.19137   0.56752
