26
Generated by autodE on: 2022-06-28. E = -689.460868 Ha
C    -3.03243  -1.15965  -0.13992
O    -2.10867  -0.67587   0.84075
C    -0.87397  -0.32497   0.37406
C    -0.45387   0.96803   0.27625
O    -1.11393   2.09314   0.54873
C    -2.48583   2.10806   0.95625
C     0.94925   1.26601  -0.18216
O     1.30700   2.43304  -0.26437
C     1.85798   0.14534  -0.53442
C     3.23986   0.49043  -0.99693
C     1.42851  -1.13730  -0.43594
C     2.30879  -2.29607  -0.78296
C     0.04652  -1.43559   0.04789
O    -0.33290  -2.59693   0.18858
H    -3.96034  -1.40088   0.39546
H    -3.23802  -0.38306  -0.89547
H    -2.65266  -2.06393  -0.63798
H    -2.73813   3.16883   1.08015
H    -2.62169   1.57915   1.90835
H    -3.13049   1.66565   0.18349
H     3.40036   1.57492  -0.99483
H     3.41597   0.10906  -2.01637
H     3.99681   0.01837  -0.34929
H     2.64931  -2.22595  -1.82928
H     1.78541  -3.24895  -0.64333
H     3.21721  -2.29555  -0.15775
