55
Generated by autodE on: 2022-06-28. E = -1547.438167 Ha. Imaginary frequency = -305.0 cm-1
C    -1.99070  -4.54333   1.09344
O    -2.00632  -3.10850   1.21211
C    -1.55853  -2.41863   0.17164
O    -1.18660  -2.89134  -0.88050
C    -1.50266  -0.95637   0.47681
C    -2.35294  -0.45832   1.51085
N    -3.01407  -0.10068   2.39855
O    -1.22285  -0.24909  -0.62087
C    -0.81545   1.01887  -0.72328
C    -0.04677   1.21645  -2.00631
C    -0.03139   0.08270  -2.99568
O     0.49336   2.28667  -2.23307
C    -1.61885   2.13337  -0.21024
C    -3.01044   1.97671  -0.03939
C    -3.79748   3.05515   0.35986
C    -3.21544   4.30621   0.58563
C    -1.84133   4.47905   0.38652
C    -1.04701   3.40829  -0.01628
C     0.80352   0.66094   1.15606
C     0.54163   1.78844   2.10626
C     1.86478   0.86740   0.14775
O     2.38973   1.96979  -0.02090
C     2.28936  -0.27549  -0.70064
O     3.03838   0.03751  -1.79368
C     4.43382   0.26321  -1.55850
C     1.87299  -1.54487  -0.42688
O     2.09499  -2.67345  -1.10026
C     2.74207  -2.69635  -2.37803
C     1.13424  -1.80422   0.84316
O     1.09303  -2.94059   1.29415
C     0.46723  -0.66189   1.54539
C     0.09481  -0.96116   2.97272
H    -2.64836  -4.86136   0.27272
H    -2.35989  -4.92476   2.05138
H    -0.96482  -4.88957   0.90875
H     0.10795  -0.89655  -2.52539
H    -1.01601   0.06273  -3.49494
H     0.74742   0.27587  -3.74316
H    -3.48785   1.02270  -0.26359
H    -4.87384   2.91803   0.48309
H    -3.83391   5.14912   0.90209
H    -1.38295   5.45732   0.54650
H     0.01812   3.54784  -0.18016
H    -0.52151   1.85192   2.37691
H     0.86540   2.74431   1.68611
H     1.10831   1.62386   3.03924
H     4.87964   0.49923  -2.53363
H     4.58786   1.10522  -0.86877
H     4.90747  -0.64393  -1.14842
H     2.68005  -3.73983  -2.71161
H     2.22248  -2.04617  -3.09334
H     3.79683  -2.40036  -2.29300
H    -0.36679  -1.95151   3.06125
H    -0.57880  -0.20912   3.39498
H     1.01813  -0.96164   3.57689
