29
Generated by autodE on: 2022-10-15. E = -840.946817 Ha
C     4.11070   1.75277   2.05734
O     3.50884   1.76946   0.76114
C     2.30396   1.15859   0.65111
O     1.75557   0.59718   1.60441
C     1.75498   1.31391  -0.65430
O     0.52724   0.88820  -0.95975
C    -0.23096  -0.03432  -0.44096
C     0.40098  -1.13091   0.35485
O     1.42569  -1.67351  -0.00700
O    -0.32340  -1.50136   1.40212
C     0.18638  -2.60025   2.17678
C    -1.60390  -0.06102  -0.90440
C    -2.44601  -1.17367  -0.67125
C    -3.75477  -1.17711  -1.14756
C    -4.25381  -0.08261  -1.86200
C    -3.42957   1.02527  -2.09803
C    -2.12217   1.04247  -1.62411
H     3.49149   2.29695   2.78689
H     4.25634   0.72043   2.40988
H     5.08135   2.25156   1.94819
H     2.13469   2.04305  -1.36631
H    -0.53189  -2.75251   2.98982
H     1.17613  -2.34460   2.58038
H     0.26045  -3.50425   1.55607
H    -2.07363  -2.03897  -0.12450
H    -4.39028  -2.04577  -0.96219
H    -5.28189  -0.09016  -2.23057
H    -3.81459   1.88612  -2.64919
H    -1.49047   1.91434  -1.79721
