39
Generated by autodE on: 2022-06-19. E = -1027.338816 Ha
C    -4.16373   0.46610   0.07865
N    -2.92706  -0.07704  -0.45964
C    -2.81326  -0.28186  -1.82349
C    -1.64321  -0.48601  -2.46301
C    -0.31891  -0.42344  -1.75422
C    -0.46826  -0.56280  -0.21896
C    -0.51848  -2.02501   0.23795
N    -1.24283  -2.84843  -0.53093
O     0.05512  -2.40459   1.26307
C    -1.72879   0.20120   0.27583
C    -1.21711   1.67729   0.20104
C    -1.76011   2.52032   1.27256
N    -2.19509   3.18180   2.12027
O     0.20509   1.62622   0.29749
C     0.64828   0.27680   0.48358
C     0.71962   0.07010   1.95578
N     0.81078   0.08601   3.11241
C     2.04545   0.10875  -0.10736
C     2.75339  -1.08310   0.10435
C     4.01592  -1.25587  -0.46590
C     4.58341  -0.24092  -1.24334
C     3.88175   0.94999  -1.44477
C     2.61573   1.12759  -0.87826
H    -4.21677   0.26280   1.15827
H    -5.02182  -0.01875  -0.40784
H    -4.25330   1.55827  -0.07206
H    -3.76567  -0.32007  -2.35749
H    -1.65275  -0.68930  -3.53481
H     0.36360  -1.20676  -2.11677
H     0.18458   0.52899  -1.98362
H    -1.71849  -2.51813  -1.36762
H    -1.32500  -3.82393  -0.25971
H    -1.90690  -0.05165   1.33139
H    -1.49368   2.12846  -0.76554
H     2.31432  -1.87541   0.71125
H     4.55896  -2.18889  -0.29923
H     5.57208  -0.37773  -1.68748
H     4.31915   1.75021  -2.04616
H     2.07060   2.05755  -1.03480
