20
Generated by autodE on: 2022-06-19. E = -457.715326 Ha
C    -3.08785   0.51540   0.54316
N    -1.82558  -0.07062   0.12271
C    -1.83092  -1.17230  -0.74215
C    -0.70604  -1.70300  -1.24720
C     0.67004  -1.16658  -0.93845
C     0.57555   0.03449  -0.01160
C     1.78094   0.74616   0.44294
N     2.96279   0.28110  -0.03458
O     1.75254   1.72065   1.22207
C    -0.62612   0.49292   0.43953
H    -3.61533   0.98882  -0.30238
H    -3.74652  -0.25448   0.97375
H    -2.89788   1.27861   1.30817
H    -2.82093  -1.57063  -0.97152
H    -0.79118  -2.56823  -1.90865
H     1.19527  -0.90237  -1.87926
H     1.29662  -1.96391  -0.48844
H     3.81786   0.74521   0.25141
H     3.02641  -0.50433  -0.66934
H    -0.66405   1.35968   1.10143
