19
Generated by autodE on: 2022-07-27. E = -569.540472 Ha
N    -3.03056   0.50675   3.09692
C    -2.65349   0.84873   2.04195
C    -2.27749   1.32296   0.78051
O    -1.22849   0.90401   0.10916
C    -0.28461   0.01875   0.30623
C    -0.26637  -0.76886   1.48523
N    -0.20237  -1.44679   2.43194
C     0.72682  -0.12200  -0.72685
C     1.77814  -1.05034  -0.57012
C     2.74820  -1.18507  -1.56112
C     2.68892  -0.40287  -2.71946
C     1.64765   0.52054  -2.88093
C     0.67314   0.66530  -1.89797
H    -2.84532   2.09830   0.26847
H     1.83302  -1.66541   0.33031
H     3.55690  -1.90676  -1.42729
H     3.45069  -0.51121  -3.49454
H     1.59628   1.13389  -3.78329
H    -0.13504   1.38586  -2.02884
