19
Generated by autodE on: 2022-06-19. E = -569.543884 Ha
N     3.82952   2.00409  -1.74779
C     3.25403   1.18515  -1.13948
C     2.60478   0.18903  -0.40515
O     1.29422   0.27524  -0.32207
C     0.43192  -0.50121   0.29086
C     0.92223  -1.62970   0.99316
N     1.35462  -2.55068   1.56338
C    -0.97375  -0.16121   0.21203
C    -1.93263  -0.96991   0.85941
C    -3.28567  -0.64676   0.78637
C    -3.70527   0.48062   0.07173
C    -2.75795   1.28704  -0.57303
C    -1.40325   0.97523  -0.50801
H     3.13603  -0.62855   0.08614
H    -1.61353  -1.85149   1.41962
H    -4.01807  -1.28022   1.29139
H    -4.76682   0.73113   0.01641
H    -3.08049   2.16813  -1.13221
H    -0.66930   1.60569  -1.01163
