17
Generated by autodE on: 2022-06-11. E = -831.765983 Ha
F     1.15303  -1.37821   1.30970
C     0.52524  -0.81573   0.27519
C     0.45250   0.48864  -0.02593
Cl    1.11542   1.81455   0.86687
C    -0.57794   0.62527  -1.13579
C    -1.96524   0.33870  -0.47596
C    -1.87101  -1.17278  -0.11151
C    -0.43950  -1.56773  -0.60988
C    -0.33666  -0.70366  -1.88551
H    -0.51672   1.55478  -1.71444
H    -2.77402   0.52765  -1.19730
H    -2.13368   0.98326   0.39845
H    -1.99121  -1.36604   0.96384
H    -2.62761  -1.76388  -0.64818
H    -0.25231  -2.64515  -0.69727
H    -1.12494  -0.93033  -2.61907
H     0.65173  -0.75533  -2.36364
