58
Generated by autodE on: 2022-06-11. E = -1880.426814 Ha. Imaginary frequency = -225.9 cm-1
C    -3.85930   2.06868  -1.33246
N    -2.57540   1.75290  -0.73682
C    -2.50876   1.14718   0.47132
O    -3.54697   0.96379   1.12745
C    -1.20987   0.60603   0.99927
C    -1.36509   0.36057   2.50950
O    -1.02931   1.28928   3.25420
N    -1.95666  -0.75009   2.95965
C    -2.04477  -1.01845   4.37864
N     0.01500   1.15701   0.62895
C     0.05190   2.53967   0.08695
C     1.22045   0.52161   0.73194
C     1.53945  -0.48526   1.75867
O     0.86463  -0.79514   2.72551
O     2.75391  -1.02798   1.53872
C     3.26281  -1.89675   2.55320
C     2.41217   1.17464   0.10718
C     2.59333   1.24906  -1.28201
C     3.71762   1.88146  -1.81965
C     4.67181   2.45912  -0.97896
C     4.49908   2.39672   0.40836
C     3.38335   1.75604   0.94542
C     0.17416  -1.75223  -0.34737
Cl    0.73676  -3.12978   0.57463
C     0.53501  -1.65170  -1.81946
C    -0.19195  -2.84337  -2.51551
C    -1.69390  -2.48190  -2.33739
C    -1.65290  -1.08441  -1.63732
C    -0.37789  -0.48836  -2.25761
C    -1.16620  -1.36331  -0.22809
F    -2.01838  -2.08097   0.55787
H    -3.68662   2.57890  -2.28832
H    -4.44389   2.73083  -0.67679
H    -4.45756   1.15984  -1.51579
H    -1.76629   1.77806  -1.34261
H    -2.11619  -1.50212   2.30244
H    -1.04342  -1.13656   4.82815
H    -2.55734  -0.19888   4.90460
H    -2.61203  -1.94509   4.53346
H    -0.83806   3.07302   0.42534
H     0.93217   3.04362   0.49844
H     0.11926   2.57034  -1.00828
H     2.56957  -2.72481   2.75063
H     3.43645  -1.33735   3.48521
H     4.21309  -2.28487   2.16767
H     1.85921   0.80872  -1.95248
H     3.84507   1.92056  -2.90385
H     5.54824   2.95582  -1.40163
H     5.23765   2.84779   1.07500
H     3.25324   1.71052   2.02893
H     1.60560  -1.56480  -2.03984
H     0.07806  -3.80532  -2.05979
H     0.09189  -2.87784  -3.57772
H    -2.20753  -2.38661  -3.30475
H    -2.24552  -3.21634  -1.73423
H    -2.58236  -0.51429  -1.72298
H    -0.09002   0.47954  -1.84103
H    -0.44602  -0.40058  -3.35089
