34
Generated by autodE on: 2022-05-31. E = -1751.140890 Ha
C     2.11678   3.08743   0.95845
C     0.99260   2.80442   0.02256
O     0.28842   3.63737  -0.50931
C     0.71314   1.34422  -0.31283
O     1.58376   0.38800   0.30333
C     1.10661  -0.73384  -0.39716
C     1.95545  -2.00979  -0.23446
C     3.16362  -1.91904   0.63252
O     1.61313  -2.98214  -0.86966
O     1.24537  -0.34403  -1.77764
C     0.96747   0.98949  -1.80170
O     1.01350   1.68153  -2.77274
C    -0.43092  -0.75216  -0.01164
C    -0.62579  -1.60842   1.24685
F    -1.77906  -1.39549   1.88178
F    -0.59868  -2.91293   0.91683
F     0.36217  -1.40186   2.13650
C    -1.43579  -1.10470  -1.17369
C    -2.84728  -1.00685  -0.60468
C    -3.08576   0.30090  -0.45185
C    -1.83264   1.00256  -0.95164
O    -1.36844   0.09781  -1.95741
C    -0.69333   0.79978   0.09462
Cl   -1.11845   1.45849   1.71204
H     1.93544   2.57157   1.91528
H     2.21413   4.16861   1.11581
H     3.04881   2.66909   0.54432
H     2.88302  -1.59032   1.64476
H     3.67167  -2.89048   0.66614
H     3.83687  -1.14765   0.22274
H    -1.15649  -1.98783  -1.75540
H    -3.46350  -1.85650  -0.31531
H    -3.95082   0.79544  -0.01367
H    -1.91051   2.02858  -1.32432
