16
Generated by autodE on: 2022-05-31. E = -1104.339451 Ha
F     2.15957   0.45044   0.85137
C     1.55167  -0.55016   0.19843
F     2.36482  -0.92138  -0.81311
F     1.49350  -1.60606   1.04277
C     0.20066  -0.19130  -0.28750
C    -0.58695   0.86270  -0.04277
Cl   -0.33655   2.27704   0.88627
C    -1.95554   0.51636  -0.68634
C    -2.56271  -0.61541   0.17361
C    -1.78734  -1.67600  -0.06728
C    -0.72070  -1.17032  -1.06476
O    -1.49451  -0.22504  -1.82312
H    -2.59132   1.36558  -0.95543
H    -3.40435  -0.49859   0.85472
H    -1.81696  -2.67783   0.35888
H    -0.21739  -1.90767  -1.69848
