34
Generated by autodE on: 2022-05-31. E = -1751.074158 Ha. Imaginary frequency = -284.6 cm-1
C     1.96634   3.15199   0.91525
C     1.22002   2.83595  -0.34717
O     0.68230   3.67967  -1.05435
C     1.13938   1.42966  -0.74229
O     1.74155   0.45869   0.00688
C     1.47356  -0.69268  -0.58403
C     2.14725  -1.95306  -0.11506
C     1.96221  -3.15295  -0.98200
O     2.78161  -1.90806   0.91827
O     1.14804  -0.50985  -1.85719
C     0.85759   0.88289  -2.04210
O     0.48176   1.31804  -3.09490
C    -0.70556  -0.71867   0.27770
C    -0.49185  -1.37722   1.60261
F    -0.10853  -2.66242   1.45876
F    -1.63079  -1.40479   2.32979
F     0.43423  -0.75572   2.34778
C    -1.59879  -1.39577  -0.80305
C    -3.05945  -1.25072  -0.31861
C    -3.34689   0.04779  -0.45444
C    -2.05867   0.67933  -1.02449
O    -1.55694  -0.39050  -1.82319
C    -1.04452   0.62604   0.13751
Cl   -1.18817   1.77123   1.42536
H     1.71762   2.44109   1.71633
H     3.04810   3.05529   0.71833
H     1.74363   4.18056   1.22577
H     2.45953  -2.97831  -1.95075
H     0.89275  -3.30988  -1.19182
H     2.39445  -4.03269  -0.49035
H    -1.26858  -2.37253  -1.16934
H    -3.66486  -2.06048   0.08558
H    -4.24680   0.59942  -0.18750
H    -2.12560   1.62519  -1.57053
