52
Generated by autodE on: 2022-06-25. E = -1408.567740 Ha
C    -3.35506   0.54239   3.05828
N    -2.40868   0.71423   1.97293
C    -2.39171  -0.09072   0.91091
O    -3.20257  -1.00792   0.71450
C    -1.28436   0.16806  -0.11639
C    -1.86408   0.60967  -1.49214
O    -1.18894   1.35109  -2.21176
N    -3.09216   0.18444  -1.80374
C    -3.63689   0.36932  -3.13343
O    -0.44718   1.22247   0.34505
C     0.90559   1.03254  -0.03517
C     1.34053   2.19923  -0.95542
C     0.75732   3.54304  -0.63518
O     2.12751   2.00789  -1.85920
C     1.75914   1.08254   1.23910
O     1.30227   1.18122   2.35701
O     3.05200   1.03877   0.95101
C     3.96749   0.97986   2.05741
C     0.94866  -0.35664  -0.78093
N     2.12340  -1.16966  -0.69348
C     3.23959  -0.90055  -1.58051
C     2.30243  -1.94693   0.43434
C     1.33790  -2.18387   1.34637
C    -0.03368  -1.58616   1.22056
C    -0.31463  -1.05702  -0.20583
C    -0.75560  -2.12457  -1.22031
N    -0.85774  -3.39004  -0.79314
O    -0.96764  -1.80966  -2.39495
H    -3.09000  -0.32017   3.69181
H    -4.36445   0.37686   2.65699
H    -3.35808   1.44808   3.67686
H    -1.63057   1.36148   2.07028
H    -3.51237  -0.50086  -1.17690
H    -3.52168   1.41412  -3.45350
H    -4.70387   0.11434  -3.12432
H    -3.12134  -0.27512  -3.86584
H     1.30544   4.32449  -1.17691
H     0.77892   3.73205   0.44928
H    -0.29859   3.55001  -0.94464
H     3.77575   0.07200   2.64720
H     4.96945   0.94501   1.61612
H     3.85657   1.86910   2.69316
H     0.77024  -0.13262  -1.83720
H     3.91034  -1.77127  -1.58882
H     2.87214  -0.74063  -2.60455
H     3.81984  -0.01118  -1.28298
H     3.29467  -2.39382   0.52965
H     1.55940  -2.82253   2.20264
H    -0.81893  -2.29990   1.51121
H    -0.14240  -0.75883   1.93752
H    -1.09825  -4.10823  -1.47003
H    -0.61523  -3.67531   0.14719
