32
Generated by autodE on: 2022-06-25. E = -950.768348 Ha
C    -2.25720  -3.30529  -0.94411
N    -2.13484  -1.96604  -0.40714
C    -1.00405  -1.26042  -0.54947
O     0.03146  -1.70983  -1.06657
C    -1.05074   0.15861  -0.10909
O     0.04938   0.85338  -0.02719
C     1.31917   0.51569   0.09595
C     2.25732   1.63150  -0.03097
C     1.68388   2.98186  -0.38468
O     3.46359   1.46255   0.14532
C     1.66716  -0.80568   0.66736
O     0.99018  -1.33195   1.53352
O     2.81096  -1.29580   0.20920
C     3.24625  -2.54148   0.77919
C    -2.29767   0.97015  -0.05591
O    -3.40848   0.40974  -0.06473
N    -2.13812   2.30200   0.03615
C    -3.24392   3.23322   0.12418
H    -2.36407  -3.30055  -2.04245
H    -3.14117  -3.78600  -0.50737
H    -1.36396  -3.89405  -0.69277
H    -2.96391  -1.42476  -0.14648
H     2.50900   3.69454  -0.50669
H     1.08678   2.93443  -1.30760
H     1.01703   3.33083   0.42127
H     2.49840  -3.32438   0.58868
H     3.40204  -2.43524   1.86212
H     4.19071  -2.78529   0.28006
H    -1.19544   2.67705   0.03741
H    -4.18150   2.67175   0.20259
H    -3.13599   3.87625   1.01091
H    -3.28954   3.87771  -0.76811
