57
Generated by autodE on: 2022-06-06. E = -1386.506066 Ha
C     4.80773  -0.82029  -1.33487
O     3.43894  -0.60888  -1.72247
C     2.76156   0.31328  -1.05396
O     3.22321   0.95562  -0.13512
C     1.28228   0.37446  -1.49791
F     0.71455  -0.59089  -0.62049
C     0.99476  -0.17962  -2.90413
C     1.72420   0.40476  -4.11751
C     1.69902   1.92838  -4.23496
C     2.65476   2.61557  -3.24000
C     2.01640   3.61329  -2.24971
C     1.52119   4.82719  -3.06281
C     3.11276   4.07408  -1.26493
C     0.85113   2.96835  -1.49677
C     0.58846   1.68290  -1.16709
C    -0.76378   1.64640  -0.43506
C    -1.76066   0.74964  -1.21269
O    -2.20063   1.06690  -2.29747
O    -2.04881  -0.38783  -0.59961
C    -2.89621  -1.30948  -1.30360
C    -0.73045   1.37634   1.06739
C     0.46834   1.24488   1.77546
C     0.45618   1.10209   3.16727
C    -0.75301   1.10455   3.86630
C    -1.95533   1.25305   3.16474
C    -1.94280   1.38797   1.77634
O    -1.26537   2.97614  -0.65189
N    -0.20031   3.82973  -1.09126
C     0.08178   4.77255  -0.00573
H     5.18391  -1.61666  -1.98629
H     5.38626   0.10260  -1.48280
H     4.86085  -1.12620  -0.28078
H    -0.08809  -0.07267  -3.05688
H     1.20846  -1.25670  -2.84666
H     1.24923  -0.04134  -5.00602
H     2.77088   0.06182  -4.12368
H     1.97854   2.20559  -5.26267
H     0.66595   2.28748  -4.09613
H     3.22765   1.86235  -2.68143
H     3.42531   3.17845  -3.78846
H     1.13148   5.63080  -2.42492
H     0.73071   4.54584  -3.77336
H     2.36722   5.23607  -3.63614
H     3.95159   4.50343  -1.83516
H     2.75114   4.84589  -0.57244
H     3.49207   3.22969  -0.67537
H    -3.86257  -0.84077  -1.53624
H    -2.40917  -1.63412  -2.23442
H    -3.03682  -2.16218  -0.63001
H     1.41934   1.25847   1.24510
H     1.40081   0.99375   3.70585
H    -0.76117   0.99526   4.95342
H    -2.90640   1.26339   3.70258
H    -2.88588   1.50904   1.23844
H     0.77019   5.54645  -0.36326
H    -0.86150   5.26033   0.27211
H     0.51405   4.27502   0.87938
