32
Generated by autodE on: 2022-06-06. E = -718.079995 Ha
C    -3.73484   1.65149   0.14245
O    -2.39709   1.12810   0.07148
C    -1.44797   1.81799   0.69511
O    -1.62965   2.83778   1.31889
C    -0.06865   1.18134   0.48474
F     0.79608   1.81951   1.37748
C    -0.02646  -0.26146   0.71185
C     0.35361  -1.39168   0.48871
C     1.00459  -2.54196  -0.14303
C    -0.02770  -3.34304  -0.95851
C     1.68504  -3.45967   0.88453
C     2.07985  -1.90070  -1.08034
C     1.64117  -0.70103  -1.94673
C     1.73950   0.72528  -1.33329
C     0.43248   1.44793  -0.95292
H    -3.77538   2.65305  -0.30871
H    -4.06768   1.70360   1.18858
H    -4.36124   0.95260  -0.42291
H     0.47341  -4.18473  -1.46157
H    -0.50972  -2.71730  -1.72399
H    -0.81341  -3.74888  -0.30333
H     0.94059  -3.93289   1.54304
H     2.39491  -2.89711   1.50969
H     2.23908  -4.25561   0.36283
H     2.44256  -2.70904  -1.73705
H     2.93734  -1.59489  -0.45818
H     2.29179  -0.71250  -2.83505
H     0.62209  -0.86852  -2.33425
H     2.41668   0.72161  -0.46303
H     2.22788   1.37043  -2.07964
H     0.56513   2.53951  -1.02491
H    -0.37412   1.17087  -1.64838
