25
Generated by autodE on: 2022-06-06. E = -668.304097 Ha
C    -2.58426  -1.63307  -2.16662
N    -1.25730  -1.35937  -1.66152
O    -1.39548  -0.41028  -0.75637
C    -0.44763   0.10280  -0.01187
C    -0.97334   1.15372   0.88481
O    -0.27277   1.89314   1.55686
O    -2.31265   1.22360   0.87977
C    -2.89656   2.24694   1.69558
C     0.95619  -0.28040  -0.06460
C     1.54811  -0.80468  -1.23760
C     2.90418  -1.12973  -1.26313
C     3.69573  -0.96716  -0.12333
C     3.11942  -0.46581   1.05008
C     1.77179  -0.12153   1.08310
H    -3.04724  -0.74245  -2.63104
H    -2.48561  -2.41512  -2.93069
H    -3.26808  -1.99564  -1.37622
H    -3.98070   2.15576   1.56126
H    -2.63152   2.09798   2.75259
H    -2.55667   3.24197   1.37274
H     0.94064  -0.94848  -2.12615
H     3.34316  -1.52125  -2.18369
H     4.75455  -1.23511  -0.14504
H     3.72620  -0.34564   1.95044
H     1.33921   0.26526   2.00334
