21
Generated by autodE on: 2022-10-26. E = -512.792963 Ha
C    -3.30250  -1.01660  -1.24110
C    -2.01863  -0.47237  -0.68188
C    -1.45217  -1.10388   0.44535
N    -1.09365  -1.69474   1.38802
N    -1.48614   0.62548  -1.23959
N    -0.42444   1.34579  -1.05630
C     0.61730   0.82530  -0.27215
C     1.21854  -0.42024  -0.55021
C     2.32784  -0.84121   0.18105
C     2.85750  -0.03752   1.19785
C     2.27534   1.20586   1.46533
C     1.17136   1.64117   0.73041
H    -4.06282  -1.12490  -0.45176
H    -3.14984  -2.00831  -1.69839
H    -3.69845  -0.34164  -2.01472
H    -2.09272   1.02279  -1.96605
H     0.81622  -1.05187  -1.34499
H     2.78512  -1.80725  -0.04665
H     3.72335  -0.37557   1.77147
H     2.68531   1.84515   2.25109
H     0.71661   2.61421   0.92712
