23
Generated by autodE on: 2022-06-19. E = -351.521382 Ha
C    -2.79694   1.03918  -2.32321
C    -2.21705   0.45381  -1.25231
C    -3.03252  -0.30586  -0.23744
C    -0.77134   0.55079  -1.06102
C    -0.07145   0.00971  -0.03227
C     1.36474   0.13712   0.10951
C     2.13697  -0.37209   1.10252
C     3.62313  -0.15031   1.11063
C     1.61385  -1.17957   2.25640
H    -2.20206   1.59006  -3.05832
H    -3.87612   0.98234  -2.49075
H    -4.09984  -0.30114  -0.49985
H    -2.69853  -1.35417  -0.16351
H    -2.92130   0.13080   0.76901
H    -0.22373   1.11375  -1.82651
H    -0.61044  -0.55299   0.73477
H     1.86861   0.71014  -0.67833
H     4.16311  -1.11425   1.10271
H     3.93654   0.36663   2.03553
H     3.95962   0.44428   0.24866
H     1.86753  -0.68804   3.21234
H     0.52784  -1.33623   2.23039
H     2.10352  -2.16909   2.28274
