20
Generated by autodE on: 2022-06-19. E = -606.997740 Ha
C     4.51208  -0.34174  -0.07798
O     3.24811  -0.10405   0.55999
C     2.16362  -0.19822  -0.21014
O     2.17781  -0.46778  -1.40086
C     0.93848   0.06317   0.54981
N    -0.18778  -0.01012  -0.10886
C    -1.48187   0.16566   0.25841
C    -1.81059   0.49991   1.58619
N    -2.08268   0.77684   2.68750
C    -2.45696  -0.02004  -0.81271
C    -3.90967   0.16315  -0.47890
O    -2.06140  -0.31698  -1.94429
H     4.67663   0.38714  -0.88476
H     4.54663  -1.36007  -0.49151
H     5.27116  -0.22249   0.70325
H     0.94955   0.30603   1.61217
H    -0.11569  -0.24936  -1.11612
H    -4.20677  -0.52727   0.32672
H    -4.52136  -0.02112  -1.37079
H    -4.08807   1.18638  -0.11043
