43
Generated by autodE on: 2022-06-19. E = -958.505954 Ha. Imaginary frequency = -415.1 cm-1
C     1.79017   2.83158  -1.24718
O     0.81985   1.81577  -1.54754
C    -0.14571   1.61978  -0.64446
O    -0.25467   2.26228   0.38855
C    -0.99137   0.47717  -0.98994
N    -2.07135   0.26131  -0.21044
C    -2.65574  -0.98058  -0.19655
C    -3.03541  -1.55554  -1.45021
N    -3.32233  -2.03449  -2.47183
C    -3.44508  -1.28801   1.03003
C    -4.25336  -2.54893   1.03585
O    -3.36202  -0.53206   1.98975
C    -0.87237  -2.16208   0.09490
C     0.20894  -1.36660  -0.36789
C     0.80484  -1.67757  -1.72391
C     1.04541  -0.71581   0.64159
C     2.28254  -0.20172   0.43348
C     3.02971   0.51360   1.44766
C     4.20366   1.17353   1.28116
C     4.94487   1.26482  -0.02342
C     4.85108   1.89893   2.42730
H     2.23766   2.65848  -0.25955
H     2.55345   2.75911  -2.02984
H     1.31677   3.82412  -1.26914
H    -1.00921   0.11728  -2.01690
H    -2.06096   0.70691   0.71313
H    -4.63177  -2.74589   2.04658
H    -5.10020  -2.44339   0.33737
H    -3.64651  -3.39734   0.68222
H    -1.00462  -2.26955   1.17423
H    -1.18197  -3.02353  -0.50036
H     1.25782  -0.79086  -2.19006
H     0.03641  -2.06990  -2.40562
H     1.59789  -2.43966  -1.62929
H     0.59310  -0.60701   1.63452
H     2.73109  -0.29607  -0.55827
H     2.57061   0.54132   2.44348
H     5.05432   2.32145  -0.32606
H     4.45740   0.72672  -0.84652
H     5.97043   0.86979   0.08663
H     4.97195   2.97248   2.19489
H     5.86904   1.51139   2.61403
H     4.26996   1.80914   3.35701
