38
Generated by autodE on: 2022-06-18. E = -897.176350 Ha
C    -2.16467   2.21475   2.29080
N    -1.60528   1.49750   1.16289
C    -1.19853   0.23024   1.25388
O    -1.30787  -0.46131   2.27405
C    -0.57062  -0.38470  -0.01396
C    -1.54526  -1.50141  -0.49235
C    -1.03108  -2.55212  -1.43347
O    -2.70852  -1.47295  -0.13753
C     0.85782  -0.93670   0.27169
C     1.10314  -1.41857   1.68456
O     1.21523  -2.59931   1.95104
C     1.82890   0.15935  -0.24762
C     3.18955  -0.42862  -0.61576
C     2.00661   1.33125   0.72629
C     1.02723   0.57796  -1.51162
C     1.44402   1.86848  -2.07070
N     1.77662   2.88358  -2.52358
N    -0.36626   0.60888  -1.08213
C    -1.35657   0.75175  -2.14076
H    -2.96850   1.62709   2.75766
H    -1.39965   2.41795   3.05864
H    -2.57754   3.16880   1.94090
H    -1.35272   1.98618   0.30711
H    -1.87673  -2.99707  -1.97357
H    -0.28478  -2.15697  -2.13678
H    -0.53796  -3.33900  -0.83730
H     1.00979  -1.81765  -0.36131
H     1.23082  -0.64593   2.47036
H     3.08479  -1.26573  -1.32254
H     3.70107  -0.79919   0.28591
H     3.82951   0.33922  -1.07787
H     1.05048   1.77962   1.02685
H     2.61907   2.11763   0.26048
H     2.53312   1.00250   1.63314
H     1.19655  -0.17482  -2.30880
H    -2.36271   0.81110  -1.70593
H    -1.17269   1.69272  -2.68068
H    -1.33443  -0.07310  -2.87809
