13
Generated by autodE on: 2022-06-17. E = -377.947715 Ha
C    -2.25401   0.78805   0.60060
N    -0.84775   0.51442   0.39696
C    -0.44443  -0.49966  -0.39193
O    -1.21900  -1.26330  -0.99442
C     1.00701  -0.70035  -0.53575
O     1.94278  -0.00495   0.00959
N     1.75171   1.03881   0.81594
H    -2.75615   1.03193  -0.34995
H    -2.77063  -0.08263   1.03611
H    -2.35612   1.63970   1.28388
H    -0.10944   1.07477   0.83788
H     1.37735  -1.51257  -1.16239
H     2.71974   1.30482   1.02965
