13
Generated by autodE on: 2022-07-27. E = -377.943371 Ha
C     2.49250  -0.53110   0.88013
N     1.11874  -0.11871   0.67811
C     0.47394  -0.37438  -0.47867
O     0.99895  -0.96817  -1.43407
C    -0.91645   0.08124  -0.59308
O    -1.45936   0.69542   0.40059
N    -2.67996   1.18458   0.49987
H     2.80675  -0.23476   1.88803
H     2.60130  -1.62325   0.78214
H     3.16588  -0.05901   0.14641
H     0.62937   0.37382   1.41838
H    -1.49593  -0.08830  -1.50672
H    -3.13176   0.97085  -0.40990
