40
Generated by autodE on: 2022-06-01. E = -1366.406629 Ha
C     2.67959  -3.17810   1.57828
N     1.51577  -2.62858   0.90910
C     1.62536  -1.75226  -0.09300
O     2.70059  -1.34000  -0.53702
C     0.30177  -1.25287  -0.71218
C     0.38815  -1.70683  -2.20035
C     0.03411  -3.13262  -2.49434
O     0.74985  -0.92416  -3.05289
N    -0.86314  -1.87695  -0.08243
C    -1.70739  -0.97129   0.23120
C    -3.02850  -1.28441   0.86604
O    -3.84381  -0.41676   1.11241
O    -3.20070  -2.57480   1.12266
C    -4.44575  -2.94826   1.73612
C    -1.31544   0.45142  -0.04298
C    -1.03953   1.25504   1.27939
C    -0.62386   2.64848   0.83867
C     0.61710   2.49591   0.36359
C     1.46886   3.48367  -0.34252
F     1.68188   3.11687  -1.62772
F     0.92413   4.71040  -0.36326
F     2.68794   3.59608   0.22498
C     0.94550   1.01243   0.50722
O     0.20707   0.67928   1.69047
C     0.12608   0.28899  -0.60628
H     2.34470  -3.89023   2.34173
H     3.26793  -2.38431   2.06462
H     3.33534  -3.70029   0.86439
H     0.58161  -2.92065   1.18113
H     0.32326  -3.38440  -3.52257
H    -1.05323  -3.26311  -2.37352
H     0.51655  -3.81312  -1.77698
H    -5.28808  -2.68275   1.08133
H    -4.39800  -4.03389   1.87599
H    -4.56014  -2.44140   2.70499
H    -2.03704   0.96217  -0.69313
H    -1.80534   1.16707   2.05583
H    -1.25785   3.53415   0.82850
H     2.00040   0.73987   0.59142
H     0.29332   0.75213  -1.58215
