24
Generated by autodE on: 2022-06-01. E = -721.577489 Ha
C    -3.13634   3.14051   0.46962
N    -2.63706   1.79291   0.63850
C    -1.41418   1.43686   0.20837
O    -0.63292   2.22009  -0.35393
C    -1.03370   0.01734   0.44653
N     0.16904  -0.31290   0.00927
C     1.23744  -0.56134  -0.39542
C     2.53615  -1.03007  -0.81520
O     2.88105  -2.17765  -0.62485
O     3.23153  -0.06751  -1.39982
C     4.55236  -0.42078  -1.86149
C    -1.83604  -1.01381   1.09400
C    -1.23210  -2.39012   1.22062
O    -2.97145  -0.77260   1.52445
H    -3.18432   3.42350  -0.59462
H    -2.49558   3.87665   0.98199
H    -4.14632   3.20025   0.89354
H    -3.19467   1.06525   1.08806
H     4.48788  -1.22689  -2.60545
H     5.17342  -0.74228  -1.01395
H     4.95870   0.48993  -2.31381
H    -0.28955  -2.35089   1.78979
H    -0.99378  -2.80145   0.22646
H    -1.94345  -3.05106   1.73123
