53
Generated by autodE on: 2022-06-21. E = -1023.370797 Ha
C     4.67256  -2.06018  -1.16902
C     3.85961  -1.30617  -0.40127
C     4.39574  -0.44980   0.71629
C     2.41440  -1.29567  -0.65550
C     1.50893  -0.58937   0.04627
C     0.04798  -0.56862  -0.25570
C    -0.86604  -1.09042   0.89366
C    -0.47976  -0.53874   2.27258
C    -0.84955  -2.61961   0.94859
C    -2.23570  -0.48280   0.46819
C    -2.98869  -1.41099  -0.48255
O    -2.84858  -1.46220  -1.68977
O    -3.84767  -2.19638   0.18024
C    -4.56106  -3.17341  -0.59053
N    -1.89012   0.79599  -0.09665
C    -2.93911   1.60442  -0.66682
C    -0.53996   0.83343  -0.67455
C    -0.54639   0.92187  -2.21369
C     0.25656   2.02600  -0.11087
C     1.51033   2.37016  -0.64781
C     2.25375   3.43216  -0.12681
C     1.75288   4.18927   0.93762
C     0.50106   3.87040   1.46910
C    -0.23489   2.79978   0.94924
H     5.75391  -2.08210  -1.00661
H     4.27340  -2.67522  -1.98153
H     5.48853  -0.53648   0.79652
H     3.95268  -0.73687   1.68444
H     4.14029   0.61140   0.55732
H     2.06945  -1.90756  -1.49757
H     1.84438   0.02576   0.88350
H    -0.12854  -1.23372  -1.11345
H    -1.21170  -0.86872   3.02610
H    -0.44589   0.55804   2.28519
H     0.50769  -0.91392   2.57996
H    -1.10054  -3.07295  -0.02285
H    -1.55846  -2.99855   1.70036
H     0.15752  -2.96925   1.22354
H    -2.88706  -0.36318   1.34979
H    -5.20354  -3.70963   0.11750
H    -5.17196  -2.68422  -1.36277
H    -3.85902  -3.87155  -1.06962
H    -3.32596   1.23702  -1.63869
H    -2.58477   2.63610  -0.81666
H    -3.79108   1.64804   0.03188
H    -0.88096   1.91116  -2.55983
H    -1.21497   0.15595  -2.62724
H     0.46191   0.74725  -2.61549
H     1.92498   1.79503  -1.47572
H     3.22971   3.66980  -0.55773
H     2.33185   5.02197   1.34440
H     0.09103   4.45645   2.29572
H    -1.20907   2.55084   1.36938
