30
Generated by autodE on: 2022-07-27. E = -671.797947 Ha
C    -3.93716  -3.02122   0.20605
O    -3.17474  -2.18334   1.06579
C    -2.13309  -1.49300   0.47476
O    -1.85938  -1.67709  -0.72231
C    -1.52662  -0.60407   1.38569
N    -0.46492   0.22165   1.03193
C    -0.56537   1.60018   1.54672
C     0.58749  -0.18500   0.32784
C     0.86767  -1.63604   0.18384
C     1.47664   0.79263  -0.32873
C     0.94556   1.84201  -1.10486
C     1.78969   2.74523  -1.75119
C     3.17764   2.61978  -1.63423
C     3.71667   1.57645  -0.87360
C     2.87636   0.66456  -0.23494
H    -3.31517  -3.80901  -0.24803
H    -4.41631  -2.44545  -0.60255
H    -4.71168  -3.48325   0.83259
H    -2.01831  -0.37345   2.32832
H     0.41621   2.08331   1.55983
H    -0.95204   1.53831   2.57264
H    -1.27082   2.18475   0.94209
H     0.30610  -2.06620  -0.66345
H     0.52698  -2.17652   1.08360
H     1.93830  -1.80505   0.01151
H    -0.13555   1.93651  -1.21846
H     1.36022   3.54761  -2.35552
H     3.83767   3.32906  -2.13888
H     4.79974   1.47192  -0.77639
H     3.30828  -0.14165   0.36097
