41
Generated by autodE on: 2022-10-24. E = -1053.208366 Ha
C     0.11656  -1.87496  -2.91233
N    -0.86049  -1.04134  -2.21595
O    -0.21377   0.15588  -1.75875
C     0.32356  -0.00233  -0.41568
C    -0.23615   1.14618   0.43236
C    -1.33456   1.89548  -0.00903
C    -1.89514   2.88152   0.80910
C    -1.36797   3.12891   2.07846
C    -0.26533   2.39073   2.52059
C     0.30054   1.41172   1.70119
C     1.84749   0.05269  -0.47274
C     2.45678   0.90734  -1.40361
C     3.84744   1.01438  -1.46331
C     4.64907   0.27519  -0.58650
C     4.04764  -0.57053   0.34855
C     2.65434  -0.68316   0.40522
C    -0.23389  -1.39941   0.03907
C    -0.65135  -1.50535   1.49097
O     0.14456  -1.82650   2.36274
C    -2.05948  -1.21921   1.82913
C    -2.99585  -0.99425   0.88816
C    -2.69767  -1.01644  -0.56127
O    -3.51121  -0.60784  -1.37171
C    -1.36081  -1.62501  -0.98296
H     0.52060  -1.30587  -3.75997
H     0.95601  -2.21340  -2.28046
H    -0.40997  -2.75600  -3.30580
H    -1.75485   1.70351  -0.99462
H    -2.75226   3.45568   0.44921
H    -1.80953   3.89575   2.71914
H     0.16146   2.57959   3.50840
H     1.16116   0.84566   2.05904
H     1.83505   1.48570  -2.08837
H     4.30770   1.67880  -2.19867
H     5.73739   0.35940  -0.63277
H     4.66316  -1.15104   1.03993
H     2.19772  -1.34153   1.14542
H     0.54500  -2.15349  -0.11476
H    -2.30048  -1.19733   2.89477
H    -4.02833  -0.75562   1.15553
H    -1.54980  -2.70028  -1.12734
