29
Generated by autodE on: 2022-10-24. E = -671.488460 Ha
C    -1.11351   3.59560   1.34740
N    -1.44285   2.25598   0.91997
O    -0.26211   1.70662   0.55043
C    -0.07249   0.48405   0.14661
C    -1.15464  -0.48625  -0.01269
C    -2.45135  -0.10788  -0.42490
C    -3.44368  -1.07044  -0.60666
C    -3.17870  -2.42013  -0.35362
C    -1.90405  -2.80639   0.07639
C    -0.90066  -1.85425   0.23916
C     1.33964   0.18565  -0.11253
C     1.71848  -0.78314  -1.06599
C     3.06568  -1.03459  -1.32522
C     4.06179  -0.32597  -0.64581
C     3.69829   0.64375   0.29667
C     2.35508   0.89850   0.56291
H    -2.05178   4.06664   1.67393
H    -0.40366   3.62532   2.19927
H    -0.68458   4.22313   0.54001
H    -2.66812   0.94251  -0.60203
H    -4.43691  -0.76171  -0.94101
H    -3.96432  -3.16814  -0.48319
H    -1.69134  -3.85638   0.28953
H     0.08568  -2.16693   0.58327
H     0.95386  -1.32483  -1.62371
H     3.33858  -1.78410  -2.07167
H     5.11603  -0.52706  -0.84918
H     4.46961   1.19895   0.83563
H     2.07875   1.64442   1.30955
