41
Generated by autodE on: 2022-10-24. E = -1053.129687 Ha. Imaginary frequency = -203.2 cm-1
C     0.55821  -1.32185  -2.75362
N    -0.67260  -0.72278  -2.27608
O    -0.53516   0.29606  -1.38398
C     0.35559   0.54581  -0.45058
C    -0.12431   1.50046   0.54836
C    -1.43503   2.02649   0.46984
C    -1.90383   2.90160   1.44285
C    -1.08652   3.26514   2.52175
C     0.21184   2.75704   2.60776
C     0.69571   1.88981   1.62834
C     1.80702   0.26688  -0.58567
C     2.49962   0.84100  -1.66606
C     3.87756   0.65674  -1.79321
C     4.57779  -0.08607  -0.83903
C     3.89642  -0.63173   0.25481
C     2.52008  -0.45012   0.38911
C    -0.44310  -2.02401   0.31575
C    -0.96748  -1.29863   1.45510
O    -0.31663  -1.08808   2.49172
C    -2.36852  -0.80540   1.35618
C    -3.15122  -1.08167   0.29731
C    -2.65871  -1.92191  -0.81605
O    -3.41715  -2.31911  -1.69716
C    -1.21933  -2.28314  -0.79718
H     1.13365  -0.60032  -3.35769
H     1.22315  -1.73627  -1.98218
H     0.23540  -2.13681  -3.41640
H    -2.07708   1.74509  -0.36300
H    -2.91627   3.30348   1.36354
H    -1.46128   3.94778   3.28767
H     0.85837   3.04018   3.44103
H     1.71507   1.51543   1.70582
H     1.95394   1.43388  -2.40217
H     4.40449   1.09916  -2.64151
H     5.65529  -0.23321  -0.94185
H     4.43992  -1.20511   1.00899
H     1.99102  -0.87180   1.24385
H     0.55760  -2.44676   0.40590
H    -2.72532  -0.21165   2.20064
H    -4.18546  -0.73573   0.22907
H    -0.92130  -3.03798  -1.52468
