45
Generated by autodE on: 2022-05-30. E = -1522.848655 Ha
C     3.12746  -1.66780  -2.57649
N     1.87201  -1.41371  -1.89798
C     1.54117  -2.03037  -0.75923
O     2.21645  -2.90693  -0.22276
C     0.19534  -1.53989  -0.14086
C    -0.05737  -2.36704   1.07742
N    -0.36855  -2.99449   2.00280
C     0.16745  -0.05595   0.25419
C    -0.97758   0.51584  -0.16767
C    -1.84128  -0.53104  -0.86435
C    -3.07698  -0.95733  -0.06062
N    -0.87341  -1.61082  -1.11309
C    -1.36002  -2.92856  -1.46833
C    -1.46110   1.95095  -0.03888
C    -2.29115   2.37568  -1.24602
Cl   -2.62884   1.93886   1.44404
C    -0.43448   3.03630   0.32033
C     0.67122   3.32928  -0.69931
C     1.61002   2.17764  -1.06177
C     2.25911   1.42995   0.10574
C     1.35941   0.53608   0.96447
F     2.13176  -0.50759   1.44028
F     0.95577   1.17969   2.11403
H     3.26628  -0.91229  -3.35930
H     3.96681  -1.60752  -1.86729
H     3.14267  -2.66739  -3.04088
H     1.21596  -0.74185  -2.28344
H    -2.18492  -0.15290  -1.84007
H    -3.77232  -0.11683   0.05406
H    -3.60590  -1.76494  -0.58754
H    -2.79956  -1.31209   0.94301
H    -2.07128  -2.84037  -2.30222
H    -0.51910  -3.55231  -1.80923
H    -1.86220  -3.46156  -0.63857
H    -2.62497   3.41461  -1.11965
H    -1.66799   2.31751  -2.15253
H    -3.17382   1.74182  -1.39388
H     0.00370   2.80948   1.29473
H    -1.01648   3.95887   0.46072
H     0.22975   3.72441  -1.62842
H     1.26998   4.15138  -0.27220
H     1.09023   1.45654  -1.71048
H     2.42908   2.58658  -1.67402
H     3.02506   0.75518  -0.30330
H     2.76884   2.12369   0.79365
