23
Generated by autodE on: 2022-05-30. E = -1009.688761 Ha
C     2.52994  -1.85541  -0.29915
C     1.08534  -1.39052  -0.40264
Cl   -0.00660  -2.88328  -0.16110
C     0.67815  -0.41542   0.59458
C     0.16406   0.54919   1.11872
C    -0.63766   1.77369   1.04491
F    -1.42030   1.95180   2.15481
F     0.20039   2.86525   1.00756
C    -1.50705   1.74368  -0.20649
C    -0.76982   1.40508  -1.51673
C    -0.62888  -0.09017  -1.92102
C     0.74962  -0.76343  -1.77641
H     2.71985  -2.33430   0.67104
H     3.19693  -0.98568  -0.40228
H     2.75237  -2.56937  -1.10463
H    -1.96468   2.74375  -0.27341
H    -2.31632   1.02121  -0.01925
H    -1.33732   1.90465  -2.31564
H     0.21901   1.89379  -1.51296
H    -1.38663  -0.69832  -1.39979
H    -0.88389  -0.15863  -2.98914
H     1.54571  -0.02911  -1.98508
H     0.85583  -1.56759  -2.52048
