45
Generated by autodE on: 2022-05-30. E = -1522.743968 Ha. Imaginary frequency = -257.1 cm-1
C     2.63854  -1.69795  -2.52116
N     1.38235  -1.67156  -1.79859
C     1.25823  -2.33106  -0.62082
O     2.14894  -3.08133  -0.19552
C     0.03476  -2.08495   0.19180
C     0.11851  -2.59938   1.51228
N     0.20065  -3.05141   2.58602
C     0.30043   0.34532   0.41493
C    -0.76149   0.80897  -0.02749
C    -2.14293  -1.11574   0.24984
C    -2.26790  -0.91127   1.71973
N    -1.22612  -1.86621  -0.36159
C    -1.47865  -2.15671  -1.78755
C    -1.45723   1.96510  -0.61132
C    -1.46407   1.88607  -2.13413
Cl   -3.25417   1.95601  -0.06748
C    -0.86564   3.27592  -0.05217
C     0.52260   3.69244  -0.56749
C     1.72040   2.73748  -0.42646
C     1.93858   2.11764   0.96865
C     1.61951   0.63020   0.99845
F     1.67135   0.16118   2.29211
F     2.61824  -0.05415   0.33465
H     2.96490  -2.73402  -2.68728
H     3.43706  -1.17093  -1.97056
H     2.49975  -1.21169  -3.49558
H     0.79093  -0.85999  -1.94365
H    -3.05476  -0.97124  -0.33248
H    -2.93818  -0.06080   1.89752
H    -2.73133  -1.80973   2.16728
H    -1.31582  -0.72483   2.22514
H    -1.22280  -1.29295  -2.41593
H    -2.54553  -2.37671  -1.90419
H    -0.89792  -3.03011  -2.09619
H    -1.98965   0.98285  -2.47221
H    -0.42785   1.84297  -2.50208
H    -1.95583   2.77303  -2.55930
H    -0.85972   3.19482   1.04521
H    -1.56494   4.08747  -0.30511
H     0.44094   3.97219  -1.63031
H     0.76354   4.62619  -0.03145
H     1.64815   1.93221  -1.17493
H     2.61893   3.30903  -0.70406
H     2.98367   2.21846   1.29900
H     1.30657   2.60088   1.72833
