18
Generated by autodE on: 2022-06-05. E = -5681.750687 Ha
C     3.06960   2.95387   0.14420
O     2.44628   1.66866   0.31126
C     1.20762   1.54755  -0.13184
O     0.57493   2.44323  -0.65963
C     0.63046   0.17969   0.07365
Br    1.74211  -1.16417   0.80211
C    -0.65308  -0.04909  -0.26642
Br   -1.51447  -1.71116  -0.07029
C    -1.55340   0.98840  -0.89880
O    -1.74380   1.04941  -2.09108
O    -2.15795   1.72316   0.02288
C    -3.03764   2.75719  -0.45651
H     4.07823   2.85163   0.55923
H     3.11651   3.21616  -0.92216
H     2.50452   3.72271   0.68984
H    -2.46574   3.48755  -1.04660
H    -3.45670   3.23165   0.43753
H    -3.83704   2.32343  -1.07331
