39
Generated by autodE on: 2022-06-05. E = -6272.634477 Ha. Imaginary frequency = -294.9 cm-1
C    -0.45273   2.52281  -3.43857
O    -0.22526   2.17139  -2.06263
C     0.31235   0.98168  -1.83505
O     0.69613   0.22465  -2.69616
C     0.46064   0.75270  -0.32848
Br    1.70146   2.03998   0.38455
C     1.67041  -1.11690  -0.24247
C     2.27385  -1.05569   1.12260
C     2.64263  -1.05336  -1.40811
C     2.50482  -2.06730  -2.50639
O     3.56296  -0.25941  -1.34319
O     0.65703  -1.93309  -0.50598
C    -0.40022  -2.19685   0.25180
C    -0.35563  -2.34409   1.66064
N    -0.39493  -2.48720   2.81609
C    -1.54655  -2.80792  -0.46377
C    -1.41359  -2.98953  -1.94561
O    -2.54394  -3.11496   0.17683
C    -0.69332   0.42484   0.40980
Br   -0.80130   0.80945   2.25533
C    -1.97900   0.13101  -0.28979
O    -2.07210   0.09964  -1.50557
O    -2.99429  -0.07353   0.53500
C    -4.27572  -0.33333  -0.06441
H    -1.16774   1.81926  -3.88855
H     0.49208   2.50420  -3.99937
H    -0.87014   3.53557  -3.42260
H     3.16189  -0.41703   1.08441
H     1.59524  -0.68968   1.89960
H     2.59215  -2.07764   1.39327
H     2.92815  -3.01645  -2.13233
H     1.46233  -2.25252  -2.78412
H     3.08947  -1.73783  -3.37486
H    -1.14749  -2.03890  -2.42821
H    -2.36019  -3.37099  -2.34750
H    -0.60096  -3.70301  -2.15836
H    -4.22240  -1.21871  -0.71091
H    -4.96124  -0.51165   0.77129
H    -4.60190   0.53862  -0.64880
