27
Generated by autodE on: 2022-06-11. E = -5667.441439 Ha
C     2.10156  -1.30681  -4.29264
N     1.95139  -1.17545  -2.85589
C     3.00295  -0.95449  -2.05349
O     4.15934  -0.85511  -2.47535
C     2.73490  -0.81579  -0.54541
C     1.34280  -0.96421  -0.15447
C     0.21362  -0.65452   0.16727
C    -0.82112   0.27487   0.52149
Br   -1.12326   0.19834   2.50011
Br   -2.54539  -0.18103  -0.36943
C    -0.38908   1.69355   0.11019
C     1.03897   2.10472   0.52755
C     2.22034   1.75916  -0.42333
C     3.16410   0.59799  -0.04601
H     2.52592  -0.39132  -4.73462
H     1.11595  -1.49043  -4.73706
H     2.76776  -2.14612  -4.54642
H     1.02247  -1.21825  -2.44869
H     3.38051  -1.57039  -0.06867
H    -1.12575   2.39919   0.52072
H    -0.47444   1.74067  -0.98726
H     1.24964   1.73785   1.54570
H     1.00511   3.20117   0.61508
H     1.84257   1.61399  -1.44996
H     2.85507   2.65706  -0.47274
H     4.16378   0.78276  -0.46687
H     3.27994   0.55199   1.04786
