27
Generated by autodE on: 2022-07-27. E = -794.252454 Ha
C    -3.91573  -0.37310   2.14768
N    -2.86653  -1.20826   1.60310
C    -1.60128  -0.76696   1.48102
O    -1.23617   0.36551   1.81954
N    -0.72195  -1.78035   1.06380
N     0.35189  -1.42764   0.44401
C     0.73101  -0.34378  -0.23560
C    -0.26450   0.66439  -0.70602
O    -1.39801   0.29755  -1.04375
N     0.13960   1.94177  -0.77091
C    -0.72485   2.97724  -1.30229
C     2.13205  -0.44268  -0.68392
O     2.84609  -1.39962  -0.42079
O     2.53696   0.60813  -1.39606
C     3.89591   0.59208  -1.86177
H    -3.91151   0.61432   1.66259
H    -4.88498  -0.85291   1.96424
H    -3.79957  -0.21878   3.23405
H    -3.05551  -2.17974   1.37944
H     1.09595  -2.14402   0.45859
H     1.11723   2.15035  -0.59697
H    -1.69024   2.97918  -0.77499
H    -0.92396   2.83082  -2.37696
H    -0.23970   3.95049  -1.16112
H     4.03585   1.53289  -2.40556
H     4.05894  -0.26466  -2.53074
H     4.59028   0.53406  -1.01156
