54
Generated by autodE on: 2022-06-11. E = -6461.677894 Ha. Imaginary frequency = -238.6 cm-1
C   -14.92350  -1.87122 -16.19116
N   -13.70715  -1.82743 -15.40573
C   -12.90864  -2.89557 -15.27527
O   -13.08633  -3.95591 -15.88496
C   -11.73838  -2.68606 -14.28280
C   -10.72696  -3.87024 -14.25054
C   -10.72420  -4.78899 -13.01824
C   -11.85860  -5.81374 -12.82798
C   -13.33258  -5.38180 -12.73876
C   -13.68689  -4.28559 -11.72250
Br  -13.27332  -4.92351  -9.87129
Br  -15.67642  -3.99732 -11.82511
C   -13.00692  -3.05582 -12.05405
C   -12.34631  -2.50437 -12.94658
C   -11.35964  -0.61576 -11.97008
C   -12.16983   0.47801 -12.64793
O   -12.86784   0.28949 -13.64641
N   -11.91700   1.70259 -12.15791
C   -12.67147   2.85516 -12.61316
C    -9.95306  -0.80544 -12.42154
O    -9.13928  -1.47358 -11.80705
O    -9.72156  -0.22326 -13.59111
C    -8.43117  -0.44255 -14.18863
N   -11.53472  -1.11956 -10.73824
N   -12.57870  -1.55247 -10.09967
C   -13.81532  -0.91329 -10.28144
O   -14.00355   0.12097 -10.92823
N   -14.78751  -1.52560  -9.57067
C   -16.17084  -1.12308  -9.70326
H   -15.68561  -2.51856 -15.72426
H   -15.33151  -0.85614 -16.27570
H   -14.72452  -2.25779 -17.20171
H   -13.51377  -1.02129 -14.80471
H   -11.21954  -1.77996 -14.61945
H    -9.72071  -3.43355 -14.32958
H   -10.89080  -4.46575 -15.16071
H    -9.79923  -5.38570 -13.08441
H   -10.60594  -4.17911 -12.10964
H   -11.82242  -6.52999 -13.66626
H   -11.61717  -6.39639 -11.92411
H   -13.66965  -5.00662 -13.71573
H   -13.94047  -6.27027 -12.51201
H   -11.43860   1.76461 -11.26430
H   -12.63564   2.92604 -13.70902
H   -12.23167   3.76291 -12.18223
H   -13.72829   2.78542 -12.30440
H    -8.45146   0.09228 -15.14417
H    -8.26961  -1.51730 -14.35181
H    -7.64118  -0.04074 -13.53922
H   -10.67449  -1.58676 -10.41850
H   -14.56640  -2.43246  -9.17161
H   -16.30686  -0.08047  -9.37700
H   -16.52220  -1.20289 -10.74515
H   -16.79130  -1.77109  -9.07247
