35
Generated by autodE on: 2022-06-17. E = -820.622864 Ha
C     0.50927  -3.03203  -0.41912
C    -0.24409  -2.16963   0.27496
C    -1.41834  -2.59875   1.10920
C    -0.02508  -0.66951   0.23660
C     1.42537  -0.18651  -0.01839
C     1.93336   0.78893   1.00331
C     3.07252   0.69180   1.71334
C     3.43272   1.75350   2.71708
C     4.06899  -0.42772   1.60077
N     1.40462   0.47338  -1.34366
N     0.28619   0.61152  -1.83423
C    -0.79950   0.03842  -0.92908
C    -1.62015  -0.84626  -1.75093
N    -2.24326  -1.54169  -2.43827
C    -1.60167   1.22418  -0.38099
O    -1.06721   2.22921   0.02650
O    -2.90236   0.98507  -0.36272
C    -3.74724   2.00731   0.20150
H     0.29771  -4.10468  -0.39188
H     1.34791  -2.71109  -1.04234
H    -1.25553  -2.33221   2.16793
H    -1.59783  -3.68089   1.04027
H    -2.33385  -2.06860   0.79412
H    -0.38359  -0.24942   1.18491
H     2.11725  -1.03019  -0.11428
H     1.28226   1.65445   1.16263
H     3.53801   1.31485   3.72468
H     2.68147   2.55534   2.76084
H     4.41115   2.20174   2.47091
H     4.23155  -0.89076   2.58902
H     5.04779  -0.03035   1.28091
H     3.77510  -1.21633   0.89592
H    -3.47676   2.17885   1.25263
H    -4.77013   1.62345   0.12458
H    -3.64030   2.93998  -0.36922
