12
Generated by autodE on: 2022-06-17. E = -469.079170 Ha
C     2.89694  -0.65952  -0.24493
O     1.49194  -0.76458   0.04249
C     0.74315   0.29834  -0.24405
O     1.14585   1.33922  -0.72111
C    -0.66903   0.04203   0.09948
C    -1.15731  -1.16089   0.65794
N    -1.53715  -2.16105   1.11893
N    -1.52035   1.02746  -0.14339
N    -2.21116   1.88609  -0.36350
H     3.34419   0.16074   0.33415
H     3.33393  -1.61918   0.05262
H     3.05389  -0.48396  -1.31866
