35
Generated by autodE on: 2022-06-17. E = -820.569712 Ha. Imaginary frequency = -451.8 cm-1
C     0.01880  -3.29826  -0.50461
C    -0.81637  -2.40958   0.06993
C    -2.29379  -2.67063   0.20606
C    -0.37423  -1.09827   0.56033
C     0.96814  -0.74333   0.83152
C     1.24557   0.39308   1.71884
C     2.44462   0.73460   2.24150
C     2.57841   1.94140   3.12724
C     3.72026  -0.02123   1.99837
N     1.63575   0.03544  -0.87584
N     0.71866   0.28655  -1.55863
C    -0.64615   0.12728  -1.40697
C    -1.29024  -0.70271  -2.36068
N    -1.80893  -1.43273  -3.10463
C    -1.41561   1.24188  -0.81013
O    -2.62874   1.22857  -0.72721
O    -0.62254   2.19037  -0.32269
C    -1.24884   3.23643   0.43815
H     1.08578  -3.09690  -0.63082
H    -0.35351  -4.25705  -0.87463
H    -2.87251  -1.85225  -0.25297
H    -2.58726  -3.61848  -0.26626
H    -2.58545  -2.70187   1.26984
H    -1.14902  -0.49891   1.04458
H     1.70843  -1.54414   0.79233
H     0.38520   1.03277   1.94095
H     2.96693   1.65652   4.12122
H     3.30841   2.65517   2.70569
H     1.61995   2.46347   3.26369
H     4.46271   0.63463   1.51092
H     3.59310  -0.91294   1.37112
H     4.16947  -0.33336   2.95744
H    -0.43448   3.88657   0.77623
H    -1.78176   2.81086   1.30001
H    -1.95157   3.79872  -0.19271
