34
Generated by autodE on: 2022-06-17. E = -674.229228 Ha
C     2.61566   0.66466   1.01740
C     2.07013  -0.45981   0.18835
O     2.59977  -1.55926   0.15503
C     0.82882  -0.20091  -0.68672
C     1.24990  -0.52765  -2.12271
O     0.50179   1.20487  -0.64968
C    -0.78949   1.43287  -0.12413
C    -0.70221   1.90045   1.27751
N    -0.61609   2.31304   2.35891
C    -1.58980   0.11982  -0.32370
C    -2.76169  -0.02232   0.65176
C    -2.17230   0.15446  -1.74781
C    -0.45186  -0.96371  -0.14138
C    -0.73029  -2.26178  -0.90441
C    -0.28463  -1.34546   1.34405
H     2.89215   1.50660   0.36358
H     3.49238   0.31678   1.57885
H     1.84782   1.04452   1.70798
H     0.42181  -0.39265  -2.82768
H     2.06736   0.14886  -2.41622
H     1.61677  -1.55882  -2.19201
H    -1.25120   2.26168  -0.68372
H    -2.46357   0.04334   1.70544
H    -3.50140   0.77104   0.46270
H    -3.26349  -0.98966   0.49789
H    -1.40731   0.32173  -2.51647
H    -2.69855  -0.78136  -1.97982
H    -2.90237   0.97472  -1.82081
H    -0.84129  -2.11918  -1.98519
H     0.09203  -2.97365  -0.73823
H    -1.65512  -2.72405  -0.52577
H    -1.20207  -1.81617   1.72068
H     0.52432  -2.07790   1.45959
H    -0.05440  -0.48727   1.99003
