16
Generated by autodE on: 2022-07-27. E = -438.151701 Ha
C     1.91168  -1.84194   0.48861
C     0.73443  -0.91060   0.36987
O     0.03019  -0.61584   1.34430
C     0.39435  -0.44159  -0.96088
C     1.02450  -0.95052  -2.21179
O    -0.63930   0.34538  -1.15198
C    -1.43042   1.10449  -0.42976
C    -1.20060   1.57923   0.86978
N    -1.10766   2.13232   1.89806
H     1.71892  -2.77850  -0.06010
H     2.08565  -2.07166   1.54767
H     2.81492  -1.39050   0.04872
H     0.49584  -0.54954  -3.08657
H     2.08225  -0.64267  -2.27064
H     1.00719  -2.05205  -2.25634
H    -2.23053   1.55513  -1.01874
