18
Generated by autodE on: 2022-06-17. E = -235.968071 Ha
C    -1.34677  -1.43617  -0.09879
C    -0.66299  -0.08999  -0.10419
C    -1.63877   1.03094  -0.37082
C     0.66299   0.08997   0.10411
C     1.34674   1.43618   0.09892
C     1.63879  -1.03094   0.37072
H    -2.14416  -1.45824   0.66569
H    -0.67718  -2.28349   0.09121
H    -1.85032  -1.61446  -1.06596
H    -1.18745   2.03015  -0.38525
H    -2.14556   0.87577  -1.34028
H    -2.43855   1.03281   0.39148
H     0.67711   2.28352  -0.09086
H     1.85025   1.61428   1.06615
H     2.14414   1.45845  -0.66554
H     1.18777  -2.03030   0.38358
H     2.14445  -0.87665   1.34092
H     2.43945  -1.03177  -0.39066
