34
Generated by autodE on: 2022-06-17. E = -674.125838 Ha. Imaginary frequency = -252.5 cm-1
C     2.95990  -1.09989   0.37045
C     1.91791  -0.01075   0.28753
O     1.64668   0.69030   1.27715
C     1.28036   0.18463  -0.98742
C     1.80934  -0.38261  -2.26218
O     0.33939   1.10454  -1.17440
C    -0.59218   1.61544  -0.39164
C    -0.46430   2.09671   0.93526
N    -0.62151   2.60762   1.97544
C    -1.80777  -0.46478  -0.07602
C    -2.60757   0.00799   1.11513
C    -2.51107  -0.34449  -1.40927
C    -0.79082  -1.39863   0.08848
C    -0.44478  -2.37889  -1.00134
C    -0.31999  -1.76351   1.47062
H     2.57864  -2.05697  -0.01653
H     3.26884  -1.21945   1.41698
H     3.84039  -0.83246  -0.23714
H     1.10184  -0.19169  -3.08011
H     2.78565   0.05679  -2.53354
H     1.95884  -1.46856  -2.17694
H    -1.35931   2.13071  -0.97410
H    -3.37195  -0.75322   1.36034
H    -2.00051   0.15926   2.01586
H    -3.13941   0.94645   0.90003
H    -1.80695  -0.26516  -2.25002
H    -3.17208   0.53392  -1.43189
H    -3.13841  -1.23553  -1.59496
H     0.57684  -2.77095  -0.89166
H    -1.12694  -3.24914  -0.93096
H    -0.55345  -1.97051  -2.01356
H    -1.10325  -2.32811   2.00981
H     0.57619  -2.39853   1.43461
H    -0.08406  -0.87863   2.08013
