52
Generated by autodE on: 2022-06-23. E = -1151.621944 Ha
C     5.54306  -0.96910   0.04574
C     4.34883  -0.68254  -0.51067
C     4.20854  -0.35555  -1.97402
C     3.14240  -0.65748   0.32375
C     1.89940  -0.40968  -0.12547
C     0.71049  -0.29854   0.77067
C     0.03294   1.12541   0.64883
C     1.02808   2.25051   0.41894
O     1.41222   2.53377  -0.72047
N     1.50138   2.83570   1.52662
C     2.50936   3.87608   1.46323
C    -0.86318   1.17702   1.89762
O    -0.69660   1.73050   2.96298
O    -1.90417   0.38755   1.62660
C    -1.64317  -0.17353   0.24676
C    -2.94309  -0.64230  -0.33178
C    -3.99980  -1.02529   0.50577
C    -5.18846  -1.51761  -0.04026
C    -5.33220  -1.63339  -1.42527
C    -4.27949  -1.25398  -2.26418
C    -3.09015  -0.76378  -1.72198
N    -0.95251   0.90714  -0.41717
C    -1.75148   2.08593  -0.75829
C    -0.51304  -1.24443   0.45000
C    -0.80668  -2.19169   1.61410
C    -0.30979  -2.07211  -0.82151
H     6.46139  -0.98257  -0.54803
H     5.62998  -1.19671   1.11264
H     3.53384  -1.06734  -2.47809
H     3.76479   0.64541  -2.10664
H     5.18140  -0.37895  -2.48479
H     3.29122  -0.84068   1.39437
H     1.72924  -0.21596  -1.18535
H     1.03763  -0.44282   1.80918
H     1.04472   2.61881   2.41151
H     3.38737   3.52977   0.89789
H     2.82083   4.13170   2.48312
H     2.12479   4.78406   0.97066
H    -3.89388  -0.93447   1.58650
H    -6.00558  -1.81086   0.62279
H    -6.26229  -2.01700  -1.85101
H    -4.38349  -1.33916  -3.34823
H    -2.27358  -0.47246  -2.38254
H    -2.50637   1.81587  -1.50626
H    -2.26879   2.53370   0.11058
H    -1.09036   2.84135  -1.19977
H    -1.73116  -2.76067   1.42941
H    -0.91276  -1.66047   2.56959
H     0.01941  -2.91201   1.71483
H     0.58713  -2.69882  -0.71158
H    -1.16842  -2.73890  -0.98615
H    -0.18013  -1.44931  -1.71509
