23
Generated by autodE on: 2022-06-23. E = -351.521383 Ha
C    -3.29251   0.51665   1.78679
C    -2.41483  -0.04222   0.92476
C    -2.81466  -1.19122   0.03467
C    -1.04721   0.46679   0.84323
C    -0.07498  -0.00589   0.02331
C     1.26784   0.53610  -0.01816
C     2.29298   0.12087  -0.80455
C     2.20224  -1.00628  -1.79382
C     3.63695   0.78896  -0.73163
H    -2.99902   1.35074   2.43167
H    -4.32148   0.15552   1.86853
H    -3.86512  -1.47215   0.19492
H    -2.68325  -0.93408  -1.02956
H    -2.18639  -2.07755   0.22365
H    -0.80711   1.30319   1.51073
H    -0.30721  -0.83976  -0.64450
H     1.46211   1.37157   0.66529
H     1.21351  -1.48106  -1.83489
H     2.45264  -0.64571  -2.80723
H     2.94774  -1.78512  -1.55440
H     3.65634   1.60578   0.00473
H     4.42291   0.05945  -0.46529
H     3.92400   1.19942  -1.71653
