34
Generated by autodE on: 2022-06-28. E = -824.311917 Ha
C    -3.02152   3.58911   0.50141
O    -2.61781   2.22515   0.37459
C    -1.28894   1.99697   0.26944
O    -0.46917   2.92718   0.26176
C    -0.92721   0.61104   0.14294
N     0.42433   0.45375  -0.02490
C     1.20256  -0.60400  -0.10466
C     2.63708  -0.52791  -0.26890
C     3.34711   0.68391  -0.43894
C     4.73209   0.67708  -0.58408
C     5.44527  -0.52905  -0.56839
C     4.75482  -1.73549  -0.40686
C     3.36910  -1.73711  -0.26019
C    -1.85646  -0.52634   0.15041
C    -2.89541  -0.60893   1.10150
C    -3.78882  -1.68058   1.09825
C    -3.66461  -2.70478   0.15337
C    -2.63822  -2.64011  -0.79454
C    -1.74721  -1.56589  -0.79844
H    -2.57861   4.05105   1.39665
H    -2.72809   4.17203  -0.38476
H    -4.11462   3.57437   0.59200
H     0.87904   1.37625  -0.05739
H     0.73471  -1.58487  -0.02742
H     2.82058   1.64127  -0.46744
H     5.26266   1.62311  -0.71512
H     6.53127  -0.52662  -0.68476
H     5.30088  -2.68171  -0.39549
H     2.83210  -2.68029  -0.13306
H    -2.99553   0.17668   1.85102
H    -4.58368  -1.72075   1.84726
H    -4.36133  -3.54626   0.15595
H    -2.53430  -3.42816  -1.54455
H    -0.96939  -1.52389  -1.56341
