18
Generated by autodE on: 2022-05-31. E = -548.458914 Ha
N     4.44132   1.63779  -0.20496
C     3.47739   1.01908  -0.44200
C     2.37673   0.30638  -0.89333
N     1.43038  -0.27055  -0.41066
C     0.32878  -0.84003  -0.04387
C     0.38489  -2.24203   0.22851
N     0.41645  -3.38322   0.45415
C    -0.93037  -0.08624   0.08822
C    -2.11372  -0.75506   0.45083
C    -3.30976  -0.04670   0.56519
C    -3.34109   1.32975   0.32108
C    -2.16476   1.99815  -0.03785
C    -0.96411   1.29988  -0.15286
H    -2.09963  -1.83017   0.64058
H    -4.22291  -0.57603   0.84589
H    -4.27909   1.88173   0.41203
H    -2.18138   3.07364  -0.22726
H    -0.05240   1.83383  -0.42730
