41
Generated by autodE on: 2022-05-31. E = -1148.593947 Ha. Imaginary frequency = -278.7 cm-1
C     0.09348   3.84710   0.65410
O    -0.18836   2.63108  -0.04379
C    -0.87686   1.68503   0.63492
O    -1.28067   1.86447   1.77699
C    -1.05672   0.48499  -0.16213
C    -0.83425   0.37549  -1.66457
C    -2.17006   0.89065  -2.29382
C    -3.19282  -0.20830  -1.87705
C    -2.30687  -1.25670  -1.12606
C    -0.99164  -1.14130  -1.91239
C    -1.89275  -0.57366   0.15968
F    -2.72080  -0.58273   1.21459
C    -0.46457  -2.04397   1.05292
C    -0.93709  -3.34576   1.25033
N    -1.47416  -4.37829   1.33564
N     0.59232  -1.47604   1.29424
C     1.29497  -0.37354   1.12563
C     1.41523   0.48141   2.26435
N     1.51322   1.20024   3.17375
C     2.14439  -0.15166  -0.05026
C     2.35648  -1.17304  -0.99387
C     3.10120  -0.91594  -2.14293
C     3.64759   0.35398  -2.36120
C     3.45627   1.36597  -1.41403
C     2.71579   1.11855  -0.25974
H     0.65747   3.64572   1.57609
H    -0.83731   4.37570   0.90890
H     0.69515   4.45688  -0.03037
H     0.07587   0.85364  -2.04314
H    -2.43413   1.88950  -1.91971
H    -2.07105   0.95134  -3.38797
H    -3.65555  -0.68529  -2.75275
H    -3.99907   0.17290  -1.23439
H    -2.75519  -2.24962  -1.00020
H    -0.17854  -1.75199  -1.50527
H    -1.11751  -1.37918  -2.97810
H     1.94838  -2.16969  -0.82045
H     3.26133  -1.71463  -2.87025
H     4.22999   0.55181  -3.26366
H     3.88640   2.35680  -1.57471
H     2.56229   1.91505   0.46986
