28
Generated by autodE on: 2022-06-17. E = -836.235130 Ha
C     4.58023   0.78420   0.96097
N     3.37502   0.09234   0.54222
C     2.16263   0.63994   0.69785
O     1.97396   1.74303   1.21895
C     0.99224  -0.15197   0.15094
C     1.02302  -1.70710   0.14183
C    -0.48195  -2.04117  -0.04567
C    -1.07904  -0.63401  -0.08789
C    -2.58171  -0.48416   0.06530
O    -3.33851  -1.41993   0.19018
O    -2.93685   0.79286   0.05318
C    -4.33968   1.08180   0.19790
N    -0.27736   0.09583   0.85762
O    -0.69564  -0.06809  -1.41438
C     0.61815   0.23052  -1.29336
O     1.29449   0.66976  -2.18790
H     4.56221   0.98875   2.04263
H     5.44797   0.15412   0.73294
H     4.68838   1.74548   0.43450
H     3.45763  -0.81572   0.09703
H     1.40249  -2.06245   1.10804
H     1.65859  -2.10224  -0.66104
H    -0.89499  -2.59785   0.80387
H    -0.70211  -2.58473  -0.97222
H    -4.42593   2.17338   0.16825
H    -4.70833   0.69218   1.15716
H    -4.90504   0.62830  -0.62828
H    -0.50689   1.09324   0.84424
