22
Generated by autodE on: 2022-06-17. E = -757.568561 Ha
C    -4.70956  -0.62444  -0.57216
N    -3.40596  -0.20327  -0.10191
C    -2.27136  -0.63027  -0.69194
O    -2.25162  -1.40545  -1.66135
C    -1.02997  -0.12028  -0.11243
N     0.19633  -0.46863  -0.61285
C     1.15650   0.11083   0.07672
C     2.59141  -0.05050  -0.19248
O     2.99832  -0.74151  -1.10567
O     3.33493   0.63200   0.66699
C     4.76109   0.53655   0.49812
O     0.63472   0.85555   1.04807
C    -0.79852   0.75118   0.98250
O    -1.50246   1.34942   1.77472
H    -4.81947  -1.71960  -0.52245
H    -4.87962  -0.31610  -1.61637
H    -5.47881  -0.16467   0.05982
H    -3.33390   0.43358   0.68747
H     0.34489  -1.09142  -1.41110
H     5.19718   1.15114   1.29299
H     5.05175   0.92158  -0.48955
H     5.08479  -0.50905   0.59810
