28
Generated by autodE on: 2022-06-17. E = -836.178057 Ha. Imaginary frequency = -486.2 cm-1
C     4.55870   0.90744   0.97168
N     3.33138   0.53034   0.30072
C     2.12663   0.78236   0.84180
O     1.95893   1.35580   1.92699
C     0.97419   0.28984   0.06708
C     0.56261  -1.98532   0.75304
C    -0.82096  -1.96906   0.58329
C    -1.10370  -0.18292  -0.37678
C    -2.57283  -0.01873  -0.49167
O    -3.22130  -0.43341  -1.42725
O    -3.06388   0.56547   0.59697
C    -4.49272   0.71971   0.66050
N    -0.30961   0.63238   0.37546
O    -0.41417  -0.46419  -1.53498
C     0.94217  -0.28644  -1.25580
O     1.81241  -0.59138  -2.04999
H     4.60919   0.46659   1.97960
H     5.41010   0.54496   0.38349
H     4.64109   2.00133   1.07728
H     3.36514   0.08029  -0.61176
H     1.00741  -1.70841   1.71104
H     1.21364  -2.51026   0.05087
H    -1.46082  -1.77552   1.44923
H    -1.27032  -2.58479  -0.20099
H    -4.69870   1.20843   1.61900
H    -4.98138  -0.26392   0.61773
H    -4.84438   1.34509  -0.17203
H    -0.57948   0.94790   1.30672
