41
Generated by autodE on: 2022-06-01. E = -1392.390013 Ha
C     3.51649   0.25428   2.64350
N     2.54699  -0.20794   1.66652
C     1.82805   0.65596   0.94114
O     1.94893   1.87906   1.07290
C     0.87347   0.09126  -0.12157
C     1.57236  -0.46359  -1.41405
C     2.49857  -1.59902  -0.99795
C     1.69796  -2.63036  -0.69636
C     0.28170  -2.12153  -0.92733
O     0.47700  -1.18528  -1.99571
C    -0.01416  -1.15263   0.25645
F     0.26602  -1.74647   1.47031
C    -1.42523  -0.51151   0.35459
C    -2.45447  -1.27550   1.16970
O    -2.99202  -0.82183   2.15155
O    -2.66017  -2.47520   0.65390
C    -3.61387  -3.32077   1.32626
N    -1.11776   0.81441   0.80973
C    -0.26816   1.14042  -0.34811
C     0.10210   2.59881  -0.48881
O    -0.43067   3.48789   0.13701
O     0.96874   2.77057  -1.48017
C     1.39597   4.11782  -1.73617
C    -1.17346   0.67114  -1.52424
O    -1.31666   1.12653  -2.62302
O    -1.91772  -0.34869  -1.01559
H     4.01110  -0.61788   3.08725
H     4.27566   0.89518   2.16991
H     3.02966   0.83553   3.44249
H     2.38145  -1.20313   1.57380
H     1.95648   0.30515  -2.09043
H     3.58191  -1.52664  -0.91693
H     1.95970  -3.60920  -0.29724
H    -0.51121  -2.84121  -1.14913
H    -4.60407  -2.84460   1.32530
H    -3.63581  -4.25629   0.75740
H    -3.28882  -3.50400   2.35973
H    -1.95446   1.40318   0.85482
H     0.53353   4.75412  -1.97913
H     1.91665   4.51856  -0.85452
H     2.08080   4.05988  -2.58936
