20
Generated by autodE on: 2022-06-01. E = -614.917244 Ha
C     3.20543  -1.29434  -1.57629
N     1.93534  -0.65408  -1.30064
C     1.19369  -0.99105  -0.22371
O     1.55413  -1.86442   0.58178
C    -0.07591  -0.27506  -0.03475
C    -0.62333   0.80714  -0.60512
F    -0.17536   1.55199  -1.60446
C    -1.88787   1.16187   0.19364
C    -1.40720   1.66492   1.57671
C    -0.89094   0.58391   2.16782
C    -1.05095  -0.55543   1.13506
O    -2.30591  -0.17170   0.52685
H     3.08366  -2.37908  -1.72767
H     3.91752  -1.14872  -0.74817
H     3.63169  -0.85819  -2.48777
H     1.60351   0.07218  -1.92587
H    -2.65497   1.74055  -0.33176
H    -1.45790   2.69804   1.91740
H    -0.40056   0.48461   3.13543
H    -1.06264  -1.58413   1.50751
