21
Generated by autodE on: 2022-06-01. E = -777.428255 Ha
C     4.81066   0.02290  -0.34191
O     3.43959   0.39232  -0.10145
C     2.52569  -0.52685  -0.36461
O     2.72579  -1.64818  -0.78395
C     1.16192  -0.03558  -0.08791
N     0.07222  -0.74438  -0.26752
C    -1.03955  -0.00646   0.07295
C    -2.36994  -0.56498  -0.03572
O    -2.59551  -1.70179  -0.42457
O    -3.31851   0.30457   0.33685
C    -4.67406  -0.15710   0.26342
C    -0.58448   1.27130   0.50026
O    -1.07851   2.29775   0.90368
O     0.86315   1.17152   0.36510
H     5.08241  -0.84229   0.27890
H     4.95373  -0.22201  -1.40375
H     5.40765   0.89836  -0.06514
H     0.05623  -1.70721  -0.61343
H    -4.93549  -0.42698  -0.77019
H    -4.82191  -1.02937   0.91670
H    -5.29499   0.67948   0.60403
