33
Generated by autodE on: 2022-05-28. E = -802.346113 Ha. Imaginary frequency = -257.8 cm-1
C    -3.93251   1.41534   0.76479
O    -2.98909   0.53715   0.14453
C    -1.74855   0.51486   0.67272
O    -1.43953   1.17926   1.65213
C    -0.85528  -0.39350  -0.04202
N    -0.10766   1.99428  -1.14937
N     1.03671   1.67643  -0.79324
C     1.73807   0.90122  -0.16852
C     2.97643   0.90650   0.59833
C     4.10111   1.70587  -0.00714
O     3.08595   0.26755   1.63671
C     0.38577  -0.76834   0.41881
C     0.82095  -1.94549  -0.43800
C    -0.11044  -3.13152  -0.02616
C    -1.50228  -2.69323  -0.57038
C    -1.20302  -1.29955  -1.20931
C     0.20198  -1.55325  -1.79648
H    -4.07579   1.15203   1.82327
H    -4.87333   1.28991   0.21557
H    -3.59235   2.45964   0.69654
H    -0.09621   2.49595  -2.04903
H     5.00566   1.57954   0.60212
H     4.28870   1.37661  -1.04098
H     3.81636   2.76970  -0.04685
H     0.75903  -0.56831   1.42563
H     1.89329  -2.17541  -0.41306
H    -0.10563  -3.29497   1.06122
H     0.23393  -4.05969  -0.50624
H    -2.27043  -2.62140   0.21292
H    -1.86844  -3.38898  -1.34039
H    -1.97922  -0.92776  -1.88739
H     0.21816  -2.37293  -2.53045
H     0.65523  -0.65426  -2.23782
