59
Generated by autodE on: 2022-06-29. E = -1454.853095 Ha
C    -3.50286  -0.84758  -3.36709
N    -2.88962  -0.34254  -2.15600
C    -2.77029  -1.08091  -1.04712
O    -3.27300  -2.19899  -0.89472
C    -1.89571  -0.45738   0.06533
C    -2.46014  -1.03408   1.38836
O    -3.37754  -0.51772   1.99370
O    -1.86093  -2.14999   1.79202
C    -2.32102  -2.71904   3.02732
C    -0.39393  -0.83198  -0.14811
C     0.04060  -1.10296  -1.62345
O     0.12163   0.22252  -2.16405
C     1.09901   0.70166  -1.23019
C     2.18465  -0.37452  -1.32633
C     3.59623  -0.12781  -1.03602
C     3.97215   0.98839  -0.25826
C     5.31288   1.23350   0.04338
C     6.31171   0.37817  -0.43274
C     5.95604  -0.72210  -1.22075
C     4.61674  -0.97255  -1.52205
C     1.50457  -1.52355  -1.55245
C     1.91507  -2.95407  -1.54929
C     0.40230   0.47443   0.14660
C    -0.64360   1.52128   0.58094
C    -0.34858   2.94099   0.10821
C    -0.76584   1.44982   2.12035
O    -0.46795   0.46999   2.78015
O    -1.33917   2.52755   2.65371
C    -1.67279   2.46025   4.05026
N    -1.90110   0.99673   0.01678
C    -3.13110   1.74874   0.22117
H    -4.40083  -1.42880  -3.11698
H    -2.81426  -1.50123  -3.93003
H    -3.79005  -0.00439  -4.00863
H    -2.32688   0.50467  -2.18579
H    -3.38677  -2.97880   2.95691
H    -1.71824  -3.62007   3.18759
H    -2.16824  -2.00557   3.84971
H    -0.12057  -1.67255   0.49159
H    -0.61648  -1.74731  -2.21734
H     1.40067   1.72638  -1.46357
H     3.20617   1.66498   0.12574
H     5.57885   2.10002   0.65372
H     7.36115   0.57243  -0.19938
H     6.72981  -1.38711  -1.61230
H     4.36010  -1.81651  -2.16328
H     1.96006  -3.36102  -2.57497
H     2.89620  -3.10977  -1.07971
H     1.16792  -3.55645  -1.00564
H     1.15490   0.34875   0.93040
H    -1.07171   3.66039   0.51073
H     0.65470   3.24498   0.44219
H    -0.38609   2.98773  -0.98831
H    -2.14030   3.42061   4.29523
H    -0.76715   2.30995   4.65447
H    -2.37663   1.63466   4.22816
H    -3.96798   1.21242  -0.24288
H    -3.04860   2.72687  -0.27605
H    -3.38823   1.91838   1.27902
