33
Generated by autodE on: 2022-06-29. E = -876.742512 Ha
C    -3.06317   1.06107  -2.00622
N    -2.33931   0.72351  -0.80179
C    -1.19478   0.00590  -0.84071
O    -0.70298  -0.35518  -1.93635
C    -0.57854  -0.34227   0.44030
C    -1.04700   0.14001   1.70114
O    -2.10324   0.75869   1.89966
O    -0.18790  -0.10297   2.72738
C    -0.62018   0.28349   4.03189
N     0.55686  -1.17974   0.39618
C     0.54999  -2.39429   1.24068
C     1.51148  -1.05977  -0.49830
C     2.48090  -2.16194  -0.74942
C     1.71076   0.19610  -1.30186
O     2.23504   0.17985  -2.39676
O     1.39098   1.30590  -0.64581
C     1.50732   2.53825  -1.37161
H    -3.52768   0.17843  -2.47972
H    -3.85806   1.77522  -1.75518
H    -2.39703   1.52380  -2.75101
H    -2.71665   0.93402   0.12145
H    -1.55248  -0.23141   4.30967
H     0.18516  -0.00983   4.71663
H    -0.78074   1.37048   4.08894
H     0.46851  -3.27558   0.58959
H     1.47731  -2.45763   1.82331
H    -0.31316  -2.36026   1.90618
H     3.13290  -1.90353  -1.58959
H     1.95625  -3.10403  -0.97624
H     3.10308  -2.34432   0.14247
H     0.86783   2.50787  -2.26551
H     2.55084   2.71498  -1.66883
H     1.16726   3.32285  -0.68649
