33
Generated by autodE on: 2022-07-27. E = -876.733723 Ha
C     0.16004  -1.82141  -3.83094
N     0.12817  -1.00173  -2.63911
C    -0.75087  -1.25088  -1.62565
O    -1.52408  -2.22244  -1.69109
C    -0.68531  -0.30663  -0.50474
C    -0.95826  -0.63941   0.86236
O    -0.83408   0.12875   1.82554
O    -1.38377  -1.91264   1.04969
C    -1.66710  -2.29345   2.39627
N    -0.29812   1.02241  -0.78555
C    -1.00019   1.71441  -1.88877
C     0.51295   1.72991  -0.03237
C     0.62304   3.20887  -0.17947
C     1.42802   1.02393   0.92732
O     1.99430  -0.02047   0.67981
O     1.62205   1.73913   2.02853
C     2.48360   1.16450   3.02428
H    -0.85045  -1.93244  -4.25236
H     0.55206  -2.83448  -3.63254
H     0.80292  -1.34018  -4.57956
H     0.87937  -0.33820  -2.48830
H    -2.48824  -1.69294   2.81607
H    -0.77858  -2.18045   3.03596
H    -1.96430  -3.34877   2.35403
H    -1.63151   0.99651  -2.41610
H    -0.27748   2.16795  -2.57827
H    -1.63815   2.50087  -1.46224
H     0.97513   3.47697  -1.18912
H     1.32239   3.61780   0.55603
H    -0.36049   3.68833  -0.04237
H     2.50519   1.88141   3.85250
H     3.49413   1.01666   2.61819
H     2.07440   0.20131   3.36106
