59
Generated by autodE on: 2022-06-29. E = -1454.743996 Ha. Imaginary frequency = -220.8 cm-1
C    -3.03069  -1.46733  -3.36328
N    -2.66362  -0.66687  -2.21401
C    -3.15084  -0.95539  -0.98704
O    -3.99964  -1.85362  -0.82913
C    -2.61581  -0.21603   0.19106
C    -3.21407  -0.75565   1.45263
O    -4.08085  -0.17208   2.07813
O    -2.81664  -1.99885   1.74204
C    -3.45927  -2.62623   2.85504
C    -0.16522  -0.96094   0.31237
C     0.10955  -1.27523  -1.16721
O     0.02375   0.05215  -1.72839
C     1.02130   0.62665  -0.86119
C     2.20893  -0.33441  -1.14243
C     3.60781   0.07431  -1.06104
C     3.96516   1.20831  -0.30024
C     5.29812   1.60710  -0.18932
C     6.30569   0.89154  -0.84434
C     5.96527  -0.22473  -1.61692
C     4.63434  -0.62828  -1.72835
C     1.62548  -1.54302  -1.31108
C     2.16706  -2.92040  -1.44672
C     0.46940   0.24119   0.51934
C    -1.39959   1.75112   0.95096
C    -0.92820   3.13114   0.58860
C    -1.15016   1.29290   2.33073
O    -1.49982   0.23921   2.84149
O    -0.41691   2.18723   3.02471
C    -0.03125   1.80143   4.34784
N    -2.28435   1.12200   0.12311
C    -2.77869   1.93124  -1.01629
H    -4.12229  -1.47886  -3.50163
H    -2.69419  -2.51392  -3.26068
H    -2.56651  -1.03479  -4.25896
H    -1.81754  -0.10271  -2.26878
H    -4.54483  -2.69399   2.69006
H    -3.02619  -3.63074   2.93061
H    -3.26589  -2.06138   3.77901
H    -0.42188  -1.71220   1.05362
H    -0.55104  -1.98497  -1.67478
H     1.17883   1.68948  -1.07186
H     3.19102   1.77451   0.22211
H     5.55128   2.48382   0.41186
H     7.34848   1.20638  -0.76089
H     6.74324  -0.78102  -2.14567
H     4.38200  -1.48208  -2.35842
H     2.04057  -3.30276  -2.47535
H     3.23399  -2.98081  -1.19142
H     1.60926  -3.60810  -0.78792
H     0.93413   0.59274   1.43749
H    -1.66785   3.90808   0.85220
H    -0.00891   3.35418   1.13834
H    -0.70975   3.21805  -0.48216
H     0.55680   2.63717   4.74507
H     0.57959   0.88697   4.32284
H    -0.91632   1.62841   4.97717
H    -3.66867   1.45835  -1.43280
H    -2.01963   2.05216  -1.79931
H    -3.06404   2.91947  -0.64058
