49
Generated by autodE on: 2022-06-23. E = -1149.447399 Ha
C     4.14698   0.94110  -2.35997
N     3.30272   0.51729  -1.25908
C     2.07477   1.01477  -1.08154
O     1.56674   1.87702  -1.80672
C     1.29862   0.47259   0.14250
C     1.88297   1.06167   1.44775
C     2.08067   2.54770   1.49127
O     2.13476   0.33732   2.39362
N    -0.09445   0.91982   0.11594
C    -0.98055  -0.20939  -0.22450
C    -0.93765  -0.26565  -1.77821
C    -1.72636   0.79692  -2.50697
O    -0.24377  -1.04999  -2.40336
C    -2.41135   0.00554   0.23908
C    -3.41936  -0.85452  -0.22469
C    -4.73812  -0.70682   0.21086
C    -5.06954   0.30836   1.11426
C    -4.07262   1.17435   1.57233
C    -2.75268   1.02429   1.13625
C    -0.26485  -1.40035   0.51681
C    -0.55432  -1.30897   2.02578
C    -0.65942  -2.80169   0.04275
C     1.21340  -1.07738   0.17412
C     2.29826  -1.77011   0.95909
O     3.48269  -1.65274   0.68474
H     4.25023   2.03663  -2.37265
H     5.14033   0.49182  -2.23941
H     3.73162   0.62718  -3.33162
H     3.60799  -0.24550  -0.64596
H     1.28844   3.08296   0.95148
H     3.03428   2.77463   0.98402
H     2.14590   2.89101   2.53174
H    -0.19425   1.72362  -0.50562
H    -2.68459   0.35353  -2.82357
H    -1.17296   1.09872  -3.40667
H    -1.95964   1.67102  -1.88492
H    -3.17695  -1.64493  -0.93852
H    -5.50992  -1.38533  -0.16020
H    -6.10114   0.42688   1.45409
H    -4.32229   1.97492   2.27297
H    -1.97630   1.70043   1.49306
H    -0.38324  -0.30533   2.43215
H    -1.59993  -1.58275   2.22458
H     0.07996  -2.01519   2.58036
H    -1.71183  -3.01218   0.28196
H    -0.50844  -2.93692  -1.03425
H    -0.04906  -3.54932   0.57376
H     1.37472  -1.42511  -0.85571
H     1.98323  -2.48547   1.74802
