14
Generated by autodE on: 2022-06-23. E = -270.683215 Ha
C    -0.92248  -1.27527  -0.21090
C    -0.82824   0.22287  -0.16261
C    -2.10083   0.97231  -0.40127
C     0.33079   0.89355   0.08243
C     1.62987   0.28620   0.32927
O     1.88412  -0.91568   0.36445
H    -0.23007  -1.69069  -0.95979
H    -0.62331  -1.71774   0.75286
H    -1.94466  -1.60135  -0.44852
H    -2.86285   0.66131   0.33496
H    -2.51166   0.70733  -1.39149
H    -1.96921   2.06168  -0.34582
H     0.31491   1.98722   0.10007
H     2.45163   1.02361   0.49920
