35
Generated by autodE on: 2022-06-23. E = -878.735420 Ha
C     1.44583  -2.82511  -0.71829
N     1.46019  -1.52228  -0.08048
C     1.65217  -0.39494  -0.79228
O     2.02258  -0.41461  -1.97368
C     1.44077   0.88759  -0.06308
N     0.32947   1.18073   0.63122
C    -0.87797   0.65147   0.81318
C    -1.69871   1.43104   1.76020
C    -3.12231   1.01791   2.00467
O    -1.20784   2.41626   2.32223
C    -1.36814  -0.51421   0.05521
C    -1.84824  -1.65756   0.71588
C    -2.30645  -2.75528  -0.01521
C    -2.29645  -2.72282  -1.41281
C    -1.82346  -1.58655  -2.07829
C    -1.36049  -0.48961  -1.35154
C     2.45310   1.93894  -0.00618
C     3.76230   1.73196  -0.71741
O     2.22690   2.97348   0.63910
H     1.07926  -3.56687   0.00104
H     0.78326  -2.82090  -1.59737
H     2.45365  -3.12059  -1.05043
H     1.11100  -1.45157   0.86916
H     0.43830   2.07727   1.14920
H    -3.63514   0.75292   1.06903
H    -3.65076   1.83460   2.51336
H    -3.14455   0.12602   2.65222
H    -1.84214  -1.69215   1.80676
H    -2.66839  -3.64198   0.51012
H    -2.65385  -3.58276  -1.98377
H    -1.81425  -1.55458  -3.17009
H    -0.98748   0.39285  -1.87526
H     4.43811   2.56332  -0.47961
H     4.22371   0.77680  -0.42137
H     3.59612   1.68390  -1.80382
