49
Generated by autodE on: 2022-06-23. E = -1149.383660 Ha. Imaginary frequency = -372.1 cm-1
C     4.72135   0.94119  -1.32060
N     3.44791   1.03333  -0.63408
C     2.29246   0.77922  -1.26026
O     2.20348   0.54328  -2.47490
C     1.04837   0.73659  -0.40562
C     1.02213   1.61579   0.80826
C     0.04855   2.76401   0.82163
O     1.88292   1.51306   1.67429
N    -0.05718   0.50142  -1.15727
C    -1.14858  -0.23286  -0.72395
C    -2.02136  -0.77079  -1.81305
C    -1.69768  -0.47397  -3.25498
O    -2.99124  -1.46145  -1.51643
C    -1.89494   0.22637   0.50450
C    -3.12820   0.87979   0.30951
C    -3.83997   1.41952   1.38134
C    -3.33607   1.32258   2.68139
C    -2.11263   0.68439   2.89027
C    -1.40250   0.14619   1.81459
C     0.00604  -2.04235  -0.21316
C    -0.92599  -2.77558   0.72607
C     0.11832  -2.72502  -1.56605
C     1.24670  -1.46565   0.21426
C     1.74383  -1.45689   1.57938
O     2.93917  -1.38502   1.85966
H     4.68758   1.50122  -2.26565
H     5.50244   1.36881  -0.68019
H     4.98420  -0.10520  -1.55045
H     3.42447   1.08869   0.38231
H    -0.88032   2.56689   0.27824
H     0.56107   3.60110   0.31371
H    -0.15659   3.06353   1.85760
H     0.23880   0.29749  -2.11931
H    -2.42058  -0.99727  -3.89296
H    -0.68157  -0.78997  -3.53559
H    -1.76625   0.61156  -3.43356
H    -3.53546   0.98330  -0.69676
H    -4.79183   1.92256   1.19574
H    -3.89075   1.74478   3.52239
H    -1.69708   0.60367   3.89710
H    -0.44941  -0.32503   2.02187
H    -0.96359  -2.36970   1.74159
H    -1.94753  -2.78032   0.31845
H    -0.59735  -3.82716   0.79702
H    -0.85711  -3.02251  -1.97439
H     0.64844  -2.09837  -2.29731
H     0.70980  -3.64865  -1.44029
H     2.06579  -1.53445  -0.50483
H     1.00067  -1.54651   2.40259
