38
Generated by autodE on: 2022-05-28. E = -802.021089 Ha
C    -3.82371   1.66474   0.01293
N    -2.74342   0.81218   0.46394
C    -2.10022  -0.02619  -0.35798
O    -2.41074  -0.19683  -1.54393
C    -0.93309  -0.80769   0.25722
C    -1.17582  -2.30459   0.01947
N    -0.76017  -0.50076   1.69205
N     0.59836  -0.82065   2.04534
C     1.44068  -0.39508   0.91640
C     2.57987  -1.39469   0.77255
C     1.90181   1.08200   1.05895
C     2.83908   1.47167  -0.10352
C     1.87359   1.53682  -1.32393
C     0.49432   1.22361  -0.70020
C     0.64546   1.88610   0.68178
C     0.43315  -0.30089  -0.34083
C     0.82323  -1.12185  -1.47518
N     1.15145  -1.76583  -2.38481
H    -4.54801   1.08410  -0.57634
H    -4.33468   2.09160   0.88503
H    -3.45513   2.49032  -0.61924
H    -2.33188   0.93625   1.38647
H    -0.32530  -2.89913   0.38466
H    -1.32671  -2.52744  -1.04391
H    -2.07998  -2.61030   0.56847
H    -1.37288  -1.08898   2.25836
H     0.67663  -1.84110   2.08912
H     3.22750  -1.35192   1.66209
H     2.18654  -2.41835   0.67992
H     3.19812  -1.19590  -0.11043
H     2.32078   1.26334   2.05759
H     3.67240   0.77334  -0.25089
H     3.27668   2.45916   0.10331
H     2.14650   0.83829  -2.12681
H     1.85051   2.54389  -1.76421
H    -0.35090   1.54007  -1.32233
H     0.84942   2.96364   0.58967
H    -0.20266   1.73196   1.35289
