17
Generated by autodE on: 2022-05-28. E = -397.480155 Ha
C     2.64282   1.34609   0.19030
N     1.22333   1.05285   0.22808
C     0.76802  -0.20677  -0.03323
O     1.55843  -1.12576  -0.31259
C    -0.68000  -0.44746   0.00336
C    -1.24079  -1.82196   0.08350
N    -1.53589   0.56810  -0.09368
N    -2.83081   0.46389  -0.06872
H     2.78544   2.42866   0.30130
H     3.19771   0.83362   0.99554
H     3.07650   1.03039  -0.76949
H     0.63738   1.69298   0.75308
H    -0.43267  -2.56250   0.08848
H    -1.91334  -2.02158  -0.77018
H    -1.85492  -1.94831   0.99325
H    -1.11976   1.49799  -0.23205
H    -3.18788   1.41296  -0.21736
