38
Generated by autodE on: 2022-05-28. E = -801.957661 Ha. Imaginary frequency = -406.0 cm-1
C    -3.83201   1.63248  -0.32742
N    -2.68013   0.93619   0.21532
C    -2.48759  -0.37848  -0.04335
O    -3.29299  -1.03192  -0.71915
C    -1.26147  -1.04421   0.49914
C    -1.04173  -2.45063   0.04409
N    -0.74613  -0.61289   1.66099
N     0.47388  -0.89422   2.11274
C     1.70218  -0.30172   0.58260
C     2.65463  -1.46483   0.60986
C     2.17986   1.07839   1.03832
C     3.10400   1.63135  -0.09089
C     2.10788   1.94238  -1.24891
C     0.74224   1.49258  -0.65094
C     0.92928   1.94036   0.81379
C     0.83502  -0.03504  -0.52023
C     0.78599  -0.84644  -1.67024
N     0.73513  -1.50543  -2.63693
H    -4.76087   1.11461  -0.04842
H    -3.85533   2.65020   0.08135
H    -3.79387   1.69153  -1.42830
H    -1.90623   1.50686   0.53542
H    -0.05276  -2.83678   0.31552
H    -1.15162  -2.52489  -1.04389
H    -1.80807  -3.10127   0.50095
H    -1.12486   0.25761   2.03388
H     0.66535  -1.86971   1.87444
H     3.00709  -1.66638   1.63334
H     2.19375  -2.38039   0.21096
H     3.54054  -1.24728  -0.00930
H     2.62648   1.09265   2.04075
H     3.88533   0.91421  -0.37928
H     3.60713   2.54506   0.25881
H     2.34272   1.39946  -2.17610
H     2.08758   3.01761  -1.48499
H    -0.13966   1.86776  -1.18535
H     1.13349   3.01851   0.89223
H     0.10538   1.69821   1.49313
