61
Generated by autodE on: 2022-06-12. E = -2379.124479 Ha
C    -4.51057  -0.07268  12.08270
O    -4.81254  -1.24280  11.30565
C    -4.01502  -2.28963  11.46908
O    -3.09382  -2.32566  12.25803
C    -4.45988  -3.51710  10.63960
C    -5.44385  -3.22033   9.51019
O    -5.15140  -4.31345  11.60900
C    -4.57910  -5.59808  11.72556
C    -5.69206  -6.50958  11.15105
O    -5.86482  -6.65106   9.95992
O    -6.50251  -6.97648  12.08643
C    -7.65380  -7.71653  11.64058
C    -4.26855  -5.87911  13.21705
O    -4.19110  -6.98352  13.70759
O    -4.07376  -4.75348  13.88433
C    -3.69850  -4.87537  15.26656
C    -3.31204  -5.58083  10.84709
C    -3.24552  -4.37006  10.24629
C    -2.24085  -3.78903   9.24799
Cl   -0.52902  -3.87055   9.86996
Cl   -2.50302  -1.95826   9.07290
C    -2.35400  -4.32287   7.81008
C    -1.74367  -5.67751   7.45302
C    -2.19368  -6.88748   8.26819
C    -1.49468  -6.98941   9.63704
C    -2.41026  -6.82362  10.87706
C    -3.28197  -8.10747  10.90975
C    -1.50285  -6.75039  12.12956
C    -0.91678  -7.91784  12.64868
C    -0.06641  -7.87075  13.75573
C     0.21683  -6.65191  14.37926
C    -0.35497  -5.48349  13.87258
C    -1.19979  -5.53326  12.75934
H    -5.27336   0.66884  11.82026
H    -3.50865   0.30047  11.82556
H    -4.55350  -0.30463  13.15625
H    -6.35156  -2.77606   9.94000
H    -5.70932  -4.16734   9.02225
H    -5.03425  -2.53032   8.76537
H    -8.28844  -7.08191  11.00633
H    -7.33514  -8.60462  11.07721
H    -8.19000  -8.01097  12.54937
H    -3.51433  -3.85313  15.61472
H    -2.78825  -5.48348  15.35897
H    -4.51469  -5.33699  15.83998
H    -3.43218  -4.32638   7.58382
H    -1.89230  -3.56928   7.15792
H    -0.64467  -5.59908   7.49101
H    -2.00081  -5.83546   6.39314
H    -3.28958  -6.86696   8.38367
H    -1.97027  -7.79329   7.68443
H    -0.66651  -6.27830   9.68902
H    -1.03277  -7.98096   9.74654
H    -3.91600  -8.16405  10.01842
H    -2.63169  -8.99001  10.89468
H    -3.91113  -8.17862  11.80343
H    -1.11858  -8.88538  12.18942
H     0.37296  -8.79658  14.13525
H     0.87550  -6.61528  15.25016
H    -0.14972  -4.51994  14.34521
H    -1.63478  -4.60472  12.39765
