33
Generated by autodE on: 2022-06-12. E = -1501.897057 Ha
C    -2.09000  -0.63186   2.29351
C    -0.98434   0.06736   1.47797
C    -1.30958   1.55405   1.26618
C    -1.29942   2.15131  -0.00167
C    -1.57528   3.51469  -0.15556
C    -1.86442   4.30498   0.95853
C    -1.87521   3.71969   2.22940
C    -1.60090   2.35911   2.38029
C    -0.75228  -0.61651   0.20687
C    -0.19375  -1.14114  -0.73326
C     0.97387  -1.54291  -1.47941
Cl    0.77307  -1.22348  -3.26638
Cl    1.24279  -3.34509  -1.26913
C     2.19642  -0.76955  -0.95785
C     2.38143  -0.77189   0.57274
C     1.65425   0.31570   1.41343
C     0.39673  -0.08612   2.21133
H    -2.14766  -0.20917   3.30630
H    -3.06904  -0.50960   1.80726
H    -1.87330  -1.70651   2.38338
H    -1.07229   1.54793  -0.88197
H    -1.56204   3.95727  -1.15460
H    -2.07943   5.36961   0.83995
H    -2.09900   4.32606   3.11051
H    -1.61044   1.92308   3.38104
H     2.08683   0.26561  -1.31745
H     3.08246  -1.19508  -1.45195
H     2.15319  -1.77530   0.96856
H     3.46178  -0.63439   0.73146
H     2.38277   0.67550   2.15606
H     1.43051   1.19083   0.77976
H     0.48756  -1.13519   2.53651
H     0.33373   0.52280   3.12630
