28
Generated by autodE on: 2022-06-12. E = -877.109603 Ha
C    -3.08382   3.13618  -0.31275
O    -1.93672   2.32762  -0.04171
C    -2.04364   1.01337  -0.35494
O    -3.05478   0.54527  -0.86298
C    -0.83414   0.28070  -0.04907
O     0.09791   1.03083   0.63769
C     1.33928   0.82750   0.82622
C     2.03257   1.70853   1.78373
C     2.11843  -0.12798  -0.03639
O     1.95212  -0.18127  -1.23544
O     3.06949  -0.73639   0.64842
C     3.91780  -1.63807  -0.08839
C    -0.65637  -1.14587  -0.04429
O     0.30458  -1.70885   0.48865
O    -1.64499  -1.83251  -0.63639
C    -1.54154  -3.26087  -0.59332
H    -2.81422   4.15494  -0.00857
H    -3.95533   2.79153   0.26405
H    -3.33282   3.11864  -1.38442
H     2.92671   2.15294   1.31606
H     2.39191   1.09736   2.63113
H     1.35348   2.48816   2.15049
H     4.45639  -1.09327  -0.87610
H     4.62034  -2.05184   0.64284
H     3.30939  -2.43724  -0.53455
H    -0.61394  -3.59907  -1.07799
H    -2.41286  -3.63938  -1.14077
H    -1.56251  -3.62394   0.44466
