61
Generated by autodE on: 2022-06-12. E = -2379.009200 Ha. Imaginary frequency = -312.6 cm-1
C    -2.19659  -1.15013  12.50648
O    -3.11145  -2.21649  12.22242
C    -4.07798  -1.96260  11.34304
O    -4.24008  -0.89144  10.79510
C    -4.93219  -3.17231  11.07703
C    -6.18032  -3.00975  10.27772
O    -4.83514  -4.02382  12.05885
C    -5.03660  -5.33583  12.16319
C    -5.97597  -6.09021  11.29299
O    -6.22237  -5.83321  10.12847
O    -6.50710  -7.14609  11.91915
C    -7.28358  -8.04136  11.11294
C    -4.62325  -5.83312  13.49806
O    -4.63600  -6.99973  13.84855
O    -4.20964  -4.83939  14.29522
C    -3.76087  -5.21542  15.60354
C    -3.15967  -5.48655  10.46537
C    -3.38379  -4.45794   9.80302
C    -2.89072  -3.73669   8.62243
Cl   -1.43717  -2.73347   9.15314
Cl   -4.10424  -2.54864   7.93390
C    -2.50213  -4.63601   7.43991
C    -1.33763  -5.61698   7.58607
C    -1.54685  -6.91442   8.38357
C    -1.22365  -6.84728   9.88354
C    -2.42546  -6.69884  10.87941
C    -3.33570  -7.93960  10.79969
C    -1.78470  -6.50669  12.26398
C    -1.46724  -7.60856  13.07030
C    -0.77712  -7.43744  14.27438
C    -0.39400  -6.16044  14.69402
C    -0.71237  -5.05490  13.90012
C    -1.39840  -5.22861  12.69613
H    -1.47734  -1.55774  13.22610
H    -2.72930  -0.29222  12.94132
H    -1.68154  -0.83705  11.58723
H    -7.03218  -3.16741  10.96114
H    -6.28043  -3.73216   9.46314
H    -6.21389  -1.99031   9.88031
H    -7.59691  -8.85052  11.78256
H    -6.67352  -8.44292  10.29045
H    -8.16281  -7.52719  10.69910
H    -3.32816  -4.30991  16.04399
H    -3.00395  -6.00698  15.54492
H    -4.61128  -5.56220  16.20958
H    -2.27340  -3.95358   6.60875
H    -3.42081  -5.17938   7.16557
H    -1.09109  -5.90239   6.55098
H    -0.45116  -5.08292   7.96560
H    -2.56632  -7.29858   8.21562
H    -0.87468  -7.66756   7.94414
H    -0.52695  -6.01598  10.07065
H    -0.70340  -7.76511  10.19833
H    -2.73224  -8.85735  10.82733
H    -4.04274  -7.96947  11.63624
H    -3.90508  -7.93792   9.86051
H    -1.75461  -8.61441  12.76246
H    -0.54059  -8.31005  14.88812
H     0.14058  -6.02708  15.63739
H    -0.42958  -4.04824  14.21808
H    -1.63732  -4.35682  12.08637
