39
Generated by autodE on: 2022-10-08. E = -1143.710302 Ha
N     0.42457  -0.43094   2.92726
C     0.69048  -0.16376   1.82771
C     0.92316   0.39955   0.47064
C     2.31113   1.04536   0.44717
C     2.51192   2.29846  -0.14095
C     3.79596   2.84907  -0.20957
C     4.89099   2.15203   0.30793
C     4.69481   0.89756   0.89548
C     3.41313   0.34770   0.96602
N    -0.17457   1.31912   0.15198
C    -1.25284   0.60645  -0.56989
C    -2.62358   0.68685   0.06139
C    -3.75280   0.70891  -0.77248
C    -5.04221   0.71217  -0.23414
C    -5.22323   0.69907   1.15267
C    -4.10503   0.67551   1.99226
C    -2.81574   0.66541   1.45154
C    -0.75130  -0.84284  -0.71260
C    -1.19399  -1.59093  -1.98443
O    -1.32912  -0.92187  -3.04411
O    -1.34790  -2.83453  -1.86895
C     0.77422  -0.66883  -0.64388
C     1.53355  -1.99658  -0.48849
O     2.03285  -2.47184  -1.53874
O     1.55836  -2.52569   0.65462
H     1.65467   2.83876  -0.54140
H     3.93842   3.83063  -0.66841
H     5.89325   2.58399   0.25609
H     5.54388   0.34320   1.30246
H     3.26688  -0.63372   1.42114
H    -0.49914   1.83748   0.96379
H    -1.33173   1.01569  -1.58834
H    -3.61061   0.71378  -1.85612
H    -5.90868   0.72905  -0.89998
H    -6.23018   0.70696   1.57687
H    -4.23579   0.66081   3.07723
H    -1.95684   0.62941   2.12480
H    -1.06721  -1.43643   0.15858
H     1.11177  -0.18590  -1.57227
