29
Generated by autodE on: 2022-10-08. E = -688.608558 Ha
N     1.10742  -2.54130  -2.37994
C     1.10115  -1.69442  -1.56946
C     1.07946  -0.68028  -0.59901
N    -0.15042  -0.20622  -0.20631
C    -1.35820  -0.49356  -0.65065
C    -2.57370   0.06163  -0.10640
C    -2.61265   0.93139   1.00915
C    -3.82540   1.43872   1.46707
C    -5.02719   1.09281   0.83453
C    -5.00397   0.22812  -0.26561
C    -3.79451  -0.28267  -0.73162
C     2.30613  -0.14346  -0.02402
C     3.54679  -0.76571  -0.30075
C     4.73374  -0.27947   0.24230
C     4.72916   0.84011   1.08312
C     3.51171   1.47055   1.36073
C     2.31895   0.99643   0.81387
H    -0.10154   0.46673   0.56130
H    -1.42247  -1.19391  -1.48567
H    -1.69456   1.21208   1.53144
H    -3.83561   2.10887   2.32980
H    -5.97508   1.49326   1.20062
H    -5.93569  -0.04900  -0.76425
H    -3.77792  -0.95576  -1.59220
H     3.57251  -1.64658  -0.94623
H     5.67398  -0.78568   0.00931
H     5.66031   1.21851   1.51020
H     3.48677   2.35308   2.00488
H     1.39972   1.54481   1.03628
