29
Generated by autodE on: 2022-10-13. E = -688.604624 Ha
N     2.10091  -2.32475   2.49652
C     1.69242  -1.54534   1.72085
C     1.21863  -0.59824   0.79464
N    -0.14495  -0.60974   0.60320
C    -0.92252  -0.02201  -0.28708
C    -2.36019  -0.16294  -0.30268
C    -3.07060   0.43240  -1.37066
C    -4.45750   0.32874  -1.45169
C    -5.17160  -0.36802  -0.47012
C    -4.48146  -0.95812   0.59700
C    -3.09553  -0.85733   0.68635
C     2.16083   0.28133   0.10462
C     1.81001   1.55825  -0.39145
C     2.76387   2.37762  -0.99785
C     4.09037   1.95695  -1.12981
C     4.45652   0.70057  -0.63205
C     3.51095  -0.12333  -0.02661
H    -0.63076  -1.21195   1.27256
H    -0.44761   0.57326  -1.06340
H    -2.51535   0.97552  -2.13922
H    -4.98624   0.79519  -2.28622
H    -6.25909  -0.44815  -0.53223
H    -5.03142  -1.49817   1.37121
H    -2.58977  -1.31629   1.53967
H     0.79664   1.94076  -0.27485
H     2.46272   3.36195  -1.36495
H     4.83060   2.59976  -1.61124
H     5.48928   0.35488  -0.72241
H     3.81430  -1.10270   0.34990
