10
Generated by autodE on: 2022-10-08. E = -455.051703 Ha
O     2.05162   1.50966   0.25958
C     1.95511   0.26151   0.10046
O     2.91898  -0.55186   0.03310
C     0.57283  -0.34664  -0.02294
C    -0.57284   0.34668   0.02303
C    -1.95510  -0.26150  -0.10048
O    -2.05159  -1.50970  -0.25927
O    -2.91901   0.55186  -0.03347
H     0.53322  -1.43292  -0.15920
H    -0.53319   1.43296   0.15931
