31
Generated by autodE on: 2022-10-26. E = -818.296095 Ha
C     5.18847   0.40045   0.34555
N     3.76701   0.38911   0.62445
C     2.83067   0.13442  -0.30821
O     3.08400  -0.11883  -1.49849
C     1.41531   0.16241   0.13321
C     1.03165   0.49203   1.44644
N     0.80496   0.78379   2.55534
N     0.54397  -0.10251  -0.85875
C    -0.76954  -0.20148  -0.96796
C    -1.21863  -0.45868  -2.35419
C    -2.68610  -0.64844  -2.60278
O    -0.38437  -0.52234  -3.25996
C    -1.67121  -0.11208   0.19667
C    -1.61993  -1.09532   1.20034
C    -2.47149  -1.01843   2.30286
C    -3.38075   0.03823   2.41467
C    -3.43986   1.01730   1.41750
C    -2.59176   0.94303   0.31131
H     5.62399   1.38937   0.55865
H     5.71497  -0.34897   0.95713
H     5.34565   0.16596  -0.71327
H     3.46829   0.58347   1.57547
H     1.04242  -0.24976  -1.75982
H    -3.21999   0.30232  -2.44351
H    -2.84145  -0.98185  -3.63668
H    -3.11266  -1.37727  -1.89702
H    -0.90714  -1.91815   1.11282
H    -2.42478  -1.78640   3.07822
H    -4.04543   0.09810   3.27961
H    -4.14729   1.84520   1.50312
H    -2.63091   1.71048  -0.46446
