31
Generated by autodE on: 2022-10-21. E = -818.297109 Ha
C     5.04631   0.66029   1.05342
N     3.61744   0.87291   0.92949
C     2.80837  -0.07983   0.43493
O     3.22272  -1.18777   0.05245
C     1.36122   0.22350   0.34987
C     0.80941   1.43889   0.79603
N     0.43818   2.47174   1.19787
N     0.63166  -0.79388  -0.14652
C    -0.64573  -0.99538  -0.41855
C    -0.93073  -2.36119  -0.90868
C    -2.34060  -2.69104  -1.30194
O    -0.01344  -3.18088  -0.99230
C    -1.65708   0.07179  -0.28667
C    -2.66443  -0.01058   0.68856
C    -3.60956   1.00988   0.80791
C    -3.56091   2.11551  -0.04739
C    -2.56459   2.19931  -1.02525
C    -1.61606   1.18320  -1.14629
H     5.50260   1.56601   1.47004
H     5.26877  -0.18761   1.72060
H     5.50491   0.45067   0.07416
H     3.22344   1.75732   1.23399
H     1.23168  -1.61899  -0.34907
H    -2.37011  -3.68756  -1.76042
H    -2.99250  -2.67762  -0.41368
H    -2.73640  -1.93738  -1.99987
H    -2.69525  -0.87106   1.36015
H    -4.38518   0.94307   1.57417
H    -4.30131   2.91314   0.04820
H    -2.52565   3.06029  -1.69628
H    -0.83351   1.24818  -1.90546
