8
Generated by autodE on: 2022-10-21. E = -651.547896 Ha
C    -2.83989  -0.38473  -0.38919
O    -1.82900   0.62720  -0.62218
C    -0.62081   0.32501  -0.25916
C     0.52098   0.08387   0.06608
Cl    2.08515  -0.23833   0.50692
H    -3.78216   0.04091  -0.75290
H    -2.59011  -1.29779  -0.94940
H    -2.90798  -0.60384   0.68656
