39
Generated by autodE on: 2022-10-21. E = -1469.826453 Ha. Imaginary frequency = -371.0 cm-1
C     5.05375  -0.49173   0.78786
N     3.62945  -0.48345   1.06282
C     2.73585  -0.86646   0.13792
O     3.04419  -1.35349  -0.95803
C     1.28776  -0.65871   0.45784
C     0.87742  -0.33057   1.77728
N     0.64163  -0.03246   2.87965
N     0.45723  -1.18292  -0.47221
C    -0.82270  -0.86063  -0.68997
C    -1.25918  -1.17927  -2.08862
C    -2.71160  -1.06185  -2.43150
O    -0.41267  -1.51903  -2.90868
C    -1.77934  -0.76757   0.44210
C    -1.77766  -1.80675   1.39118
C    -2.67498  -1.79427   2.45982
C    -3.59292  -0.74923   2.59191
C    -3.60989   0.28079   1.64534
C    -2.71324   0.27245   0.57689
C    -0.12747   1.45968  -0.94960
Cl   -1.17756   2.17870  -2.06817
C     0.91220   1.52469  -0.26902
O     1.93147   2.06255   0.36043
C     1.91595   3.50763   0.39273
H     5.33854   0.31637   0.09299
H     5.59874  -0.35609   1.73006
H     5.34802  -1.45061   0.33959
H     3.30102   0.02662   1.87704
H     0.96907  -1.45663  -1.32635
H    -3.05276  -0.02351  -2.30038
H    -3.31486  -1.68619  -1.75441
H    -2.86638  -1.36810  -3.47354
H    -1.06567  -2.62812   1.28996
H    -2.65566  -2.60599   3.19053
H    -4.29440  -0.73656   3.42925
H    -4.32311   1.10244   1.74215
H    -2.73055   1.08791  -0.14492
H     2.81274   3.81045   0.94666
H     1.94585   3.90690  -0.63202
H     1.00942   3.85865   0.90849
