44
Generated by autodE on: 2022-06-20. E = -1050.918147 Ha
C    -3.08291   3.55892   1.39115
N    -2.12385   2.68765   0.74441
C    -2.45344   1.61819   0.01846
O    -3.62087   1.25600  -0.20971
C    -1.28327   0.83732  -0.57702
O    -0.03352   1.43781  -0.24169
C     0.84722   0.48856   0.37142
C     2.27704   0.75975  -0.01027
C     3.30189   0.54181   0.91959
C     4.64080   0.70377   0.55033
C     4.96568   1.09714  -0.75121
C     3.94528   1.32581  -1.68189
C     2.60891   1.15473  -1.31479
C     0.31590  -0.86825  -0.12869
N     0.80154  -2.01721   0.60887
C     1.78639  -2.83817  -0.07662
C    -0.04617  -2.62619   1.51642
C    -1.24008  -2.13112   1.90109
C    -1.76955  -0.85575   1.31571
C    -1.21250  -0.64669  -0.11550
C    -1.90829  -1.60537  -1.09145
N    -3.17782  -1.29439  -1.39230
O    -1.33308  -2.60187  -1.54418
H    -4.08443   3.34353   0.99968
H    -2.83734   4.61178   1.19008
H    -3.09041   3.40499   2.48225
H    -1.12662   2.85347   0.85697
H    -1.41110   0.88556  -1.67192
H     0.74620   0.53512   1.46876
H     3.04718   0.24171   1.93908
H     5.43169   0.52890   1.28369
H     6.01115   1.22946  -1.03990
H     4.19341   1.63715  -2.69956
H     1.81278   1.32969  -2.04123
H     0.62545  -0.97439  -1.17802
H     1.35148  -3.37606  -0.94026
H     2.61575  -2.21324  -0.43770
H     2.20031  -3.57920   0.62225
H     0.33889  -3.56208   1.93056
H    -1.82105  -2.66248   2.65671
H    -2.86762  -0.85515   1.28893
H    -1.48495   0.01620   1.93209
H    -3.59120  -0.42322  -1.04148
H    -3.68994  -1.89083  -2.03502
