20
Generated by autodE on: 2022-06-20. E = -457.714628 Ha
C    -3.02496  -0.45030   0.86904
N    -1.80680   0.08942   0.28762
C    -1.88669   1.17284  -0.59557
C    -0.81206   1.67890  -1.22062
C     0.58163   1.12881  -1.04099
C     0.57021  -0.04130  -0.07025
C     1.81152  -0.75354   0.28905
N     2.94871  -0.31779  -0.32854
O     1.85265  -1.70962   1.12348
C    -0.58478  -0.47417   0.50738
H    -3.59375   0.34013   1.38341
H    -2.76588  -1.22566   1.60071
H    -3.67460  -0.89800   0.09818
H    -2.89041   1.57883  -0.73395
H    -0.95361   2.53053  -1.89004
H     0.99965   0.82642  -2.02346
H     1.26347   1.92875  -0.68655
H     2.94510   0.40556  -1.03608
H     3.81895  -0.80112  -0.13632
H    -0.56425  -1.31952   1.19706
