24
Generated by autodE on: 2022-06-20. E = -593.107365 Ha
C     4.07388   1.17196   0.31856
N     2.86115   0.40434   0.16083
C     2.84984  -0.94731  -0.03702
O     3.90121  -1.62371  -0.11456
C     1.56681  -1.58504  -0.15997
O     0.47591  -0.83019  -0.09014
C    -0.77076  -1.16909  -0.16627
C    -1.78095  -0.15872  -0.07533
C    -1.47044   1.21484   0.08128
C    -2.49003   2.15729   0.16428
C    -3.83404   1.76207   0.09362
C    -4.15150   0.40713  -0.06210
C    -3.13997  -0.54646  -0.14660
H     4.14590   1.97500  -0.43382
H     4.93186   0.50045   0.19360
H     4.13857   1.63619   1.31752
H     1.97061   0.88395   0.23377
H     1.45634  -2.65969  -0.31096
H    -1.00647  -2.22967  -0.30164
H    -0.42591   1.52850   0.13424
H    -2.23896   3.21384   0.28437
H    -4.62890   2.50832   0.15921
H    -5.19647   0.09343  -0.11824
H    -3.38743  -1.60380  -0.26815
