24
Generated by autodE on: 2022-07-27. E = -593.100129 Ha
C    -3.05934   1.18267   2.89845
N    -2.26976   0.66709   1.79592
C    -2.87996  -0.06458   0.80782
O    -4.08184  -0.39629   0.90812
C    -2.13590  -0.45308  -0.36219
O    -0.82480  -0.36447  -0.57974
C     0.21548  -0.02802   0.11340
C     1.50974  -0.08383  -0.50300
C     2.64177   0.25704   0.27338
C     3.91739   0.21822  -0.28432
C     4.09144  -0.15815  -1.62179
C     2.97512  -0.49653  -2.40028
C     1.69597  -0.46142  -1.85428
H    -3.58424   0.36224   3.40794
H    -3.81895   1.91463   2.57109
H    -2.38888   1.66995   3.61813
H    -1.44779   1.20784   1.54721
H    -2.66451  -0.89259  -1.20519
H     0.10558   0.25400   1.16119
H     2.50414   0.55053   1.31699
H     4.78358   0.48310   0.32645
H     5.09250  -0.18712  -2.05774
H     3.10822  -0.78920  -3.44451
H     0.82889  -0.72280  -2.46344
