44
Generated by autodE on: 2022-06-20. E = -1050.823434 Ha. Imaginary frequency = -321.7 cm-1
C    -2.05782   2.04966   3.16299
N    -1.40583   1.85252   1.88486
C    -2.10904   1.47247   0.79079
O    -3.34839   1.34073   0.83544
C    -1.41743   1.22668  -0.47635
O    -0.10577   1.33023  -0.68750
C     0.86934   0.82734   0.06031
C     2.19191   0.81345  -0.51791
C     3.30781   0.55161   0.30796
C     4.59042   0.48128  -0.23238
C     4.79120   0.67222  -1.60505
C     3.69158   0.93495  -2.43272
C     2.40512   1.00357  -1.90260
C    -0.02090  -1.42721   0.13733
N     0.08644  -1.82433   1.45720
C     1.39249  -1.89398   2.08817
C    -1.04837  -1.76144   2.26878
C    -2.28906  -1.63700   1.76912
C    -2.53628  -1.59252   0.28424
C    -1.26805  -1.20623  -0.45686
C    -1.27369  -1.13059  -1.93535
N    -2.47490  -1.26595  -2.54645
O    -0.23418  -0.96997  -2.60133
H    -2.57839   1.13111   3.47630
H    -2.79822   2.86628   3.12997
H    -1.29592   2.29498   3.91341
H    -0.43191   2.11528   1.79630
H    -1.99576   1.45091  -1.37272
H     0.74733   0.78761   1.14049
H     3.15580   0.40628   1.37930
H     5.44181   0.27922   0.42211
H     5.79712   0.61682  -2.02726
H     3.84066   1.08538  -3.50489
H     1.55286   1.19704  -2.55457
H     0.85385  -1.59943  -0.48494
H     1.39675  -2.67972   2.85736
H     2.15265  -2.13918   1.33487
H     1.67246  -0.93900   2.56656
H    -0.85258  -1.82952   3.34085
H    -3.13854  -1.60216   2.45338
H    -2.89235  -2.58048  -0.07875
H    -3.34857  -0.88303   0.06394
H    -3.34360  -1.30256  -2.02791
H    -2.51937  -1.13874  -3.55183
