57
Generated by autodE on: 2022-06-26. E = -1100.816901 Ha
C     0.67624  -1.23219  -2.13829
C     0.65971  -1.98138  -0.83905
O     1.56585  -2.74032  -0.52725
C    -0.49837  -1.78039   0.15376
C    -1.01789  -3.15089   0.69381
C    -0.79183  -4.40247  -0.11124
O    -1.70302  -3.18705   1.70254
N    -1.63208  -1.03742  -0.37563
C    -2.53546  -1.71060  -1.28885
C    -2.21280  -0.09635   0.61298
C    -3.63759  -0.49047   1.05079
C    -2.26529   1.33007   0.03640
C    -1.95477   1.60397  -1.30239
C    -2.01919   2.90839  -1.80531
C    -2.39748   3.96690  -0.97604
C    -2.71481   3.70643   0.36158
C    -2.65259   2.40234   0.85800
C    -1.25030  -0.20209   1.82323
C     0.05881  -0.82132   1.29477
C     0.84876  -1.55829   2.37427
C     0.88031   0.27700   0.64501
C     2.21213   0.45526   0.74222
C     2.91225   1.53577   0.06640
C     4.24382   1.78423   0.08587
C     5.25069   0.96096   0.83942
C     4.82216   2.94312  -0.67732
H     0.31222  -0.20508  -2.02398
H    -0.00118  -1.73954  -2.84581
H     1.69298  -1.24667  -2.55218
H    -0.88606  -4.21330  -1.19065
H     0.23339  -4.76288   0.06233
H    -1.50937  -5.16927   0.20901
H    -1.96705  -2.21706  -2.08165
H    -3.18783  -2.46724  -0.81054
H    -3.18846  -0.97362  -1.77809
H    -4.36054  -0.38351   0.22949
H    -3.65615  -1.52891   1.40939
H    -3.96659   0.16104   1.87295
H    -1.64389   0.78780  -1.95300
H    -1.76807   3.09525  -2.85256
H    -2.44400   4.98648  -1.36616
H    -3.00984   4.52406   1.02415
H    -2.90031   2.22006   1.90630
H    -1.68698  -0.86845   2.57504
H    -1.06510   0.77185   2.29494
H     0.21853  -2.28395   2.90198
H     1.70697  -2.09591   1.94775
H     1.23012  -0.83693   3.11242
H     0.31576   0.98381   0.03100
H     2.80735  -0.24055   1.33798
H     2.27876   2.20939  -0.52348
H     4.80993   0.12006   1.39017
H     6.00970   0.55685   0.14641
H     5.80001   1.59309   1.55935
H     4.04972   3.51611  -1.21114
H     5.36017   3.62976   0.00076
H     5.56875   2.59405  -1.41321
