34
Generated by autodE on: 2022-06-26. E = -749.277316 Ha
C     2.49448  -2.38228  -0.21241
C     2.00408  -1.12118   0.46036
O     2.15245  -0.99303   1.70001
C     1.35672  -0.10466  -0.30347
C     1.08201  -0.10286  -1.70669
C     0.46345   1.13924  -2.33244
O     1.32388  -1.07631  -2.45371
N     0.99406   1.06882   0.46477
C     2.09795   1.96079   0.85069
C    -0.24477   1.39325   0.72335
C    -0.55877   2.73177   1.29997
C    -1.34629   0.44016   0.48125
C    -2.50848   0.86817  -0.18171
C    -3.55942  -0.02535  -0.39870
C    -3.47287  -1.33641   0.07691
C    -2.33050  -1.75615   0.76981
C    -1.26541  -0.87960   0.96366
H     3.17088  -2.16098  -1.05046
H     3.00959  -2.99797   0.53842
H     1.64970  -2.94705  -0.63569
H     0.77799   2.07963  -1.85893
H     0.73505   1.15657  -3.39693
H    -0.63580   1.08163  -2.26798
H     2.13137   2.82159   0.16516
H     3.03339   1.40049   0.77063
H     1.96944   2.32011   1.87915
H    -1.63758   2.91816   1.29765
H    -0.03713   3.53571   0.75991
H    -0.21143   2.76035   2.34732
H    -2.58024   1.89371  -0.54856
H    -4.45067   0.30768  -0.93465
H    -4.30034  -2.03147  -0.08279
H    -2.26951  -2.77380   1.16144
H    -0.38150  -1.19924   1.51550
