34
Generated by autodE on: 2022-07-27. E = -749.277342 Ha
C     0.12043  -0.60844  -2.56445
C     0.89019  -1.17105  -1.37769
O     2.10186  -1.43589  -1.53822
C     0.20149  -1.37062  -0.14049
C     0.70154  -1.97332   1.05221
C     2.11546  -2.50512   1.10107
O    -0.01527  -2.05017   2.07955
N    -1.18754  -0.96740  -0.06216
C    -2.18075  -2.05064  -0.10104
C    -1.56342   0.28384  -0.06732
C    -3.00319   0.62956  -0.24246
C    -0.58364   1.37054   0.13210
C    -0.59289   2.48845  -0.71843
C     0.32297   3.52429  -0.52280
C     1.22519   3.46880   0.54271
C     1.21357   2.37221   1.41385
C     0.32350   1.32092   1.20711
H     0.15664   0.49336  -2.54554
H    -0.93608  -0.90952  -2.59345
H     0.62101  -0.94223  -3.48387
H     2.31319  -3.21870   0.28848
H     2.83975  -1.68506   0.97915
H     2.26961  -2.98847   2.07619
H    -1.68658  -2.97707   0.20412
H    -2.55949  -2.16385  -1.12872
H    -3.01811  -1.83971   0.57492
H    -3.46035   0.05497  -1.06127
H    -3.54696   0.37556   0.68416
H    -3.13003   1.70214  -0.42284
H    -1.30028   2.53540  -1.54856
H     0.32530   4.37966  -1.20166
H     1.93368   4.28490   0.70192
H     1.90319   2.33659   2.25995
H     0.30365   0.47286   1.89159
