57
Generated by autodE on: 2022-06-26. E = -1100.746227 Ha. Imaginary frequency = -280.0 cm-1
C     0.36634  -0.10643  -1.94635
C     0.42497  -1.28864  -1.00648
O     1.57297  -1.73592  -0.76243
C    -0.73847  -1.90801  -0.43213
C    -0.62977  -3.22018   0.19683
C     0.53316  -4.15040  -0.09198
O    -1.51324  -3.65327   0.96399
N    -2.06255  -1.37159  -0.35532
C    -3.15352  -2.31407  -0.69893
C    -2.46128  -0.20307   0.23948
C    -3.87829  -0.14547   0.76228
C    -2.08129   1.12597  -0.35809
C    -2.32869   1.23455  -1.74061
C    -2.19588   2.45364  -2.40463
C    -1.82143   3.59908  -1.69793
C    -1.62725   3.51686  -0.31642
C    -1.77875   2.29812   0.34888
C    -1.42155  -0.28280   2.25420
C    -0.04775  -0.42958   2.12570
C     0.63260  -1.71020   2.52337
C     0.77205   0.68306   1.70815
C     2.08313   0.59310   1.34536
C     2.84549   1.70749   0.84210
C     4.08237   1.62685   0.28228
C     4.81490   0.32918   0.07773
C     4.80268   2.85910  -0.17686
H     0.36120   0.83793  -1.38256
H    -0.50565  -0.11874  -2.60742
H     1.28651  -0.13052  -2.54693
H     0.96643  -4.02065  -1.09031
H     1.33978  -3.99638   0.64094
H     0.15685  -5.17687   0.03561
H    -2.73463  -3.12958  -1.29452
H    -3.65352  -2.73845   0.17727
H    -3.89117  -1.78192  -1.31596
H    -4.59115  -0.07491  -0.07666
H    -4.14177  -1.01663   1.37510
H    -3.99611   0.76762   1.35969
H    -2.63769   0.34874  -2.29690
H    -2.38536   2.50502  -3.47929
H    -1.70208   4.55361  -2.21557
H    -1.36421   4.40933   0.25582
H    -1.66201   2.28221   1.42971
H    -2.00727  -1.12230   2.63238
H    -1.84737   0.70611   2.41229
H    -0.09053  -2.51197   2.70773
H     1.35823  -2.04690   1.77168
H     1.19687  -1.53347   3.45587
H     0.28777   1.65583   1.61449
H     2.58488  -0.37332   1.40627
H     2.37121   2.69353   0.90688
H     4.13930  -0.53402   0.01215
H     5.41015   0.36873  -0.84856
H     5.52913   0.14961   0.90159
H     4.24359   3.77862   0.04914
H     5.79677   2.92439   0.30113
H     4.99110   2.81797  -1.26464
