48
Generated by autodE on: 2022-06-03. E = -1240.474188 Ha
C     2.54895  -1.31291   3.54569
N     1.51685  -0.37331   3.15922
C     1.48332   0.18407   1.94041
O     2.41125   0.10209   1.12720
C     0.19710   0.98004   1.64640
N    -0.96502   0.28589   2.19022
C    -1.36634  -0.69006   1.16556
C    -2.83159  -1.10430   1.34476
C    -0.57244  -1.92182   1.39124
N    -0.01028  -2.90736   1.63215
C    -1.02068  -0.04032  -0.27127
C    -0.57932  -1.09823  -1.26426
C    -1.50805  -1.64075  -2.16782
C    -1.15050  -2.67588  -3.03824
C     0.14482  -3.19521  -3.01614
C     1.07518  -2.67434  -2.11051
C     0.71660  -1.64185  -1.24431
C    -2.28311   0.77407  -0.76353
C    -1.91179   1.53690  -2.02422
C    -1.17121   2.57106  -1.60923
C    -1.06618   2.39318  -0.10305
O    -2.32934   1.81882   0.21769
C    -0.06833   1.16419   0.13303
C     1.17879   1.51311  -0.65766
O     1.54615   1.05929  -1.71872
O     1.76831   2.57545  -0.07981
C     2.97694   3.04711  -0.68460
H     2.37444  -2.30384   3.09153
H     3.53142  -0.94908   3.21738
H     2.55499  -1.42112   4.63791
H     0.62674  -0.39234   3.65146
H     0.31071   1.95341   2.14426
H    -1.73090   0.95177   2.27822
H    -3.14081  -1.77669   0.53295
H    -2.95397  -1.62940   2.30209
H    -3.47927  -0.21885   1.35182
H    -2.53107  -1.26574  -2.20129
H    -1.89309  -3.07568  -3.73281
H     0.42783  -4.00299  -3.69525
H     2.09089  -3.07576  -2.07636
H     1.45237  -1.25780  -0.54049
H    -3.21952   0.21418  -0.78790
H    -2.15827   1.23275  -3.04017
H    -0.64464   3.32224  -2.19673
H    -0.84224   3.26676   0.51685
H     3.74857   2.26383  -0.64690
H     3.29276   3.91572  -0.09503
H     2.80268   3.34034  -1.72976
