19
Generated by autodE on: 2022-06-03. E = -473.739650 Ha
C    -2.72180  -1.06468   2.10458
N    -1.86428  -1.92344   1.30943
C    -0.84306  -1.51838   0.52010
O    -0.14926  -2.33364  -0.13028
C    -0.56687  -0.09036   0.44712
N     0.45218   0.24166  -0.34399
C     0.96271   1.44520  -0.63078
C     0.36721   2.67061  -0.02246
C     2.06120   1.49621  -1.50953
N     2.97481   1.56925  -2.23850
H    -3.45840  -1.69191   2.62146
H    -2.15441  -0.50636   2.86670
H    -3.26931  -0.33952   1.48142
H    -2.01986  -2.92647   1.33524
H    -1.11498   0.68304   0.97554
H     0.88287  -0.58829  -0.77981
H     0.89687   3.57065  -0.35841
H    -0.69950   2.76541  -0.29613
H     0.41528   2.62348   1.08082
