19
Generated by autodE on: 2022-07-27. E = -473.726938 Ha
C     3.52755   0.88105  -0.13689
N     2.19163   1.41788   0.00370
C     1.11703   0.60744   0.20249
O     1.22282  -0.63423   0.16426
C    -0.12016   1.29701   0.52033
N    -1.31225   0.69548   0.62347
C    -1.83795  -0.46535   0.19146
C    -3.18355  -0.88953   0.70940
C    -1.22640  -1.24493  -0.80856
N    -0.87241  -1.92446  -1.69376
H     3.54834   0.08822  -0.89954
H     3.90805   0.44850   0.80556
H     4.20603   1.68523  -0.44854
H     2.07621   2.41778   0.12958
H    -0.10040   2.33236   0.85817
H    -1.99550   1.25525   1.14287
H    -3.09339  -1.65762   1.49760
H    -3.80271  -1.31135  -0.09654
H    -3.71676  -0.02875   1.14344
