29
Generated by autodE on: 2022-06-03. E = -766.672075 Ha
C    -3.99418   1.61580   0.43949
O    -3.06095   0.53125   0.39345
C    -1.75861   0.84390   0.55805
O    -1.38645   1.99319   0.73865
C    -0.93503  -0.35909   0.48225
C     0.37844  -0.55162   0.18006
C     1.51064   0.32202  -0.09925
C     1.60203   1.64016   0.39733
C     2.70722   2.43481   0.09743
C     3.73976   1.94005  -0.70707
C     3.66579   0.63441  -1.20293
C     2.57076  -0.17084  -0.89359
C     0.48539  -2.10104   0.01593
C    -0.26504  -2.46491  -1.28135
C    -1.55431  -2.26639  -0.99059
C    -1.55730  -1.78031   0.47429
O    -0.45488  -2.52812   1.00759
H    -3.78958   2.33821  -0.36441
H    -3.94240   2.13075   1.41013
H    -4.98552   1.16850   0.30114
H     0.79812   2.02975   1.01759
H     2.76430   3.45043   0.49599
H     4.60225   2.56806  -0.94220
H     4.46811   0.23875  -1.82973
H     2.53211  -1.18755  -1.28770
H     1.47621  -2.53693   0.17368
H     0.20888  -2.74810  -2.22036
H    -2.43575  -2.34478  -1.62588
H    -2.47423  -1.91412   1.05510
