48
Generated by autodE on: 2022-06-03. E = -1240.405241 Ha. Imaginary frequency = -269.5 cm-1
C     3.66446   0.20263   2.56363
N     2.36351   0.83941   2.51701
C     1.23474   0.11501   2.33170
O     1.22965  -1.12289   2.36588
C     0.02978   0.92710   2.09393
N    -1.22687   0.43592   2.10865
C    -1.76784  -0.65328   1.49745
C    -3.26868  -0.67934   1.35916
C    -1.18356  -1.94607   1.47187
N    -0.93066  -3.07988   1.35845
C    -0.83899   0.14262  -0.71058
C    -0.63399  -1.12668  -1.40692
C    -1.57030  -1.53512  -2.38662
C    -1.40857  -2.72881  -3.08969
C    -0.31359  -3.55912  -2.82965
C     0.60666  -3.18509  -1.84589
C     0.44724  -1.99448  -1.13761
C    -2.08373   1.01708  -1.05970
C    -1.69623   1.85485  -2.29063
C    -0.82328   2.75835  -1.82830
C    -0.69507   2.44958  -0.32858
O    -2.02448   2.00806  -0.02574
C     0.08208   1.10146  -0.22112
C     1.53478   1.14059  -0.40240
O     2.30123   0.20435  -0.56094
O     1.97902   2.41844  -0.36307
C     3.38637   2.62086  -0.52864
H     3.91282  -0.28227   1.60539
H     4.42415   0.96223   2.78459
H     3.69222  -0.56356   3.35224
H     2.32668   1.83867   2.33818
H     0.08442   1.97565   2.38801
H    -1.91158   1.19012   2.14892
H    -3.54675  -1.24708   0.45910
H    -3.74682  -1.16958   2.22422
H    -3.66836   0.33995   1.26850
H    -2.43278  -0.90947  -2.61723
H    -2.14375  -3.01011  -3.84758
H    -0.18565  -4.49379  -3.38075
H     1.45531  -3.83417  -1.61587
H     1.15900  -1.72942  -0.36234
H    -3.05226   0.51151  -1.08033
H    -2.02699   1.66503  -3.31117
H    -0.24508   3.50754  -2.36787
H    -0.36949   3.25530   0.33427
H     3.94755   2.14769   0.29018
H     3.53908   3.70643  -0.50887
H     3.72858   2.20866  -1.48889
