49
Generated by autodE on: 2022-06-20. E = -1003.925465 Ha
C     2.47666   2.85208  -0.65443
O     1.29611   2.67470   0.14345
C     0.26493   2.05529  -0.43432
O     0.24351   1.75039  -1.60832
C    -0.84577   1.76620   0.57570
C    -1.29072   3.05628   1.26801
O    -1.94727   1.22478  -0.14527
C    -2.54833   0.11946   0.53577
C    -2.59140  -1.11078  -0.35418
C    -3.23611  -2.26737   0.11135
C    -3.29114  -3.41850  -0.67711
C    -2.70632  -3.42763  -1.94896
C    -2.07191  -2.27603  -2.42218
C    -2.01695  -1.12288  -1.63131
C    -1.75223  -0.04583   1.84491
C    -0.38511   0.61046   1.56152
C     0.27753   1.12792   2.83887
C     0.50769  -0.35710   0.80594
C     1.85483  -0.35547   0.81769
C     2.66359  -1.23289  -0.01238
C     4.00611  -1.16964  -0.18328
C     4.71394  -2.13194  -1.09551
C     4.89621  -0.15288   0.47575
H     2.82807   1.88187  -1.03325
H     2.27214   3.52530  -1.49912
H     3.22683   3.29419   0.01086
H    -2.07380   2.83537   2.00720
H    -1.71162   3.73643   0.51211
H    -0.45877   3.56468   1.77021
H    -3.59060   0.39241   0.77357
H    -3.69713  -2.26607   1.10294
H    -3.79319  -4.31233  -0.29846
H    -2.74744  -4.32788  -2.56682
H    -1.61362  -2.27230  -3.41442
H    -1.51150  -0.22855  -1.99497
H    -2.25835   0.49368   2.65689
H    -1.64989  -1.09687   2.14534
H    -0.41588   1.74832   3.42228
H     1.17093   1.72907   2.62221
H     0.58253   0.27796   3.46756
H     0.00102  -1.06605   0.14481
H     2.38174   0.36202   1.45062
H     2.11338  -1.99879  -0.57224
H     5.24606  -1.59150  -1.89885
H     5.48662  -2.69775  -0.54453
H     4.02155  -2.85007  -1.55899
H     4.36095   0.54047   1.13708
H     5.68467  -0.65389   1.06454
H     5.41964   0.44507  -0.29118
