23
Generated by autodE on: 2022-06-20. E = -351.521385 Ha
C    -2.77001  -0.21084  -2.56504
C    -1.96434  -0.62328  -1.56179
C    -2.10678  -1.99673  -0.95711
C    -0.92982   0.26929  -1.04292
C    -0.05927  -0.02445  -0.04458
C     0.94963   0.89926   0.43258
C     1.85249   0.68190   1.42218
C     2.84394   1.74369   1.80611
C     1.95573  -0.59250   2.21102
H    -2.66386   0.78692  -3.00200
H    -3.55183  -0.85791  -2.97242
H    -2.91922  -2.56045  -1.43691
H    -2.31856  -1.93535   0.12334
H    -1.17430  -2.57590  -1.06216
H    -0.86862   1.25694  -1.51569
H    -0.11314  -1.00736   0.43133
H     0.97464   1.87398  -0.06954
H     2.73575   2.01303   2.87222
H     3.87850   1.37379   1.68905
H     2.73059   2.65673   1.20334
H     1.22128  -1.35360   1.91797
H     2.96472  -1.02825   2.10270
H     1.82622  -0.38636   3.28823
