45
Generated by autodE on: 2022-06-05. E = -1295.522027 Ha
C     3.54676   1.69242   1.78864
O     2.98781   0.82814   0.78312
C     2.06258  -0.03269   1.17406
O     1.72325  -0.20604   2.32140
C     1.48374  -0.87444  -0.01257
C     2.59935  -1.05872  -0.96610
N     3.49463  -1.20766  -1.68739
N     0.98347  -2.14898   0.46824
C    -0.37459  -1.94248   0.98089
C    -1.03975  -0.93426   0.01978
C    -1.97214   0.02425   0.78011
C    -1.58321   0.57472   2.01557
C    -2.41836   1.43895   2.72560
C    -3.67539   1.78138   2.22022
C    -4.07764   1.25010   0.99398
C    -3.23640   0.38651   0.28543
C    -1.76534  -1.63567  -1.18211
C    -0.98685  -2.85301  -1.71856
C     0.22471  -2.20415  -2.43686
C    -0.00449  -0.69146  -2.22004
C    -1.54277  -0.64260  -2.33329
C     0.21121  -0.24322  -0.72606
C     0.30549   1.29176  -0.71752
F     0.44909   1.82884   0.51170
F     1.38192   1.68878  -1.43073
F    -0.75852   1.89984  -1.26072
H     4.29156   2.30821   1.27301
H     4.01941   1.09657   2.58135
H     2.75522   2.32363   2.21671
H     1.60265  -2.52834   1.18295
H    -0.36638  -1.55980   2.00756
H    -0.92436  -2.89366   0.99078
H    -0.60276   0.34531   2.43029
H    -2.07985   1.84688   3.68116
H    -4.33223   2.45515   2.77550
H    -5.05547   1.50494   0.57812
H    -3.59199  -0.00095  -0.66711
H    -2.80436  -1.87965  -0.93370
H    -1.63007  -3.39256  -2.42941
H    -0.68837  -3.56722  -0.94380
H     0.19863  -2.38930  -3.52093
H     1.18324  -2.57831  -2.07018
H     0.56051  -0.06417  -2.91976
H    -1.88630  -1.03404  -3.30212
H    -1.98427   0.34488  -2.17989
