15
Generated by autodE on: 2022-06-05. E = -454.265756 Ha
C     2.28851   1.63085  -0.28101
N     1.06949   1.21404  -0.14826
C     0.56414  -0.07257  -0.04857
C     1.43463  -1.17272  -0.08541
N     2.17759  -2.07562  -0.11837
C    -0.85569  -0.26856   0.09182
O    -1.40775  -1.35904   0.18762
O    -1.53534   0.90356   0.10668
C    -2.95780   0.82341   0.23887
H     2.46267   2.70460  -0.34023
H     3.10763   0.91087  -0.33065
H     0.33047   1.92544  -0.10581
H    -3.32128   1.85783   0.23505
H    -3.23433   0.33066   1.18262
H    -3.39656   0.26741  -0.60281
