30
Generated by autodE on: 2022-06-05. E = -841.225413 Ha
F    -0.33143  -2.61638  -0.88122
C    -0.82617  -1.79078   0.07699
F     0.01340  -1.89530   1.12911
F    -1.99890  -2.33370   0.46964
C    -1.01818  -0.39478  -0.40303
C    -0.13915   0.63982  -0.39231
C     1.28241   0.68762  -0.03102
C     2.15466  -0.38459  -0.30728
C     3.50444  -0.31066   0.03576
C     4.01358   0.83355   0.66004
C     3.16232   1.91011   0.92767
C     1.81285   1.84319   0.57693
C    -0.95929   1.88313  -0.72827
C    -1.86523   2.15484   0.51816
C    -2.86452   0.96407   0.49075
C    -2.39327   0.15284  -0.75924
C    -1.98887   1.29426  -1.71100
H     1.77760  -1.27131  -0.81799
H     4.16599  -1.14948  -0.19344
H     5.07129   0.88896   0.92789
H     3.55174   2.81009   1.40945
H     1.15858   2.69010   0.79096
H    -0.37391   2.74759  -1.06300
H    -1.27671   2.20320   1.44486
H    -2.38312   3.11749   0.39631
H    -2.83527   0.35166   1.40273
H    -3.89933   1.30937   0.34765
H    -3.11680  -0.58564  -1.12422
H    -1.53498   0.93428  -2.64591
H    -2.81557   1.98489  -1.93710
