25
Generated by autodE on: 2022-06-23. E = -573.226737 Ha
C     3.21352   0.22391   1.69373
C     2.81550   0.10833   0.23528
O     3.67686   0.16415  -0.65569
C     1.39806  -0.05693   0.03054
N     0.78068  -0.23047  -1.15546
C     1.57468  -0.34730  -2.39748
N    -0.49181  -0.35654  -1.36315
C    -1.39135  -0.13364  -0.30520
C    -2.37936  -1.10724  -0.07740
C    -3.37110  -0.89724   0.88310
C    -3.40465   0.29409   1.61356
C    -2.43619   1.27717   1.37434
C    -1.43276   1.06988   0.42900
H     2.92963  -0.68855   2.24318
H     4.29859   0.37372   1.76868
H     2.69016   1.06657   2.17388
H     0.74928  -0.04980   0.90231
H     2.09914   0.59699  -2.58026
H     0.86701  -0.56601  -3.20132
H     2.31406  -1.14724  -2.28722
H    -2.35545  -2.02739  -0.66456
H    -4.12565  -1.66843   1.05556
H    -4.18399   0.46079   2.36043
H    -2.46354   2.21813   1.92922
H    -0.68809   1.84667   0.24618
