25
Generated by autodE on: 2022-07-27. E = -573.223083 Ha
C     2.67033   2.25262   0.24619
C     1.78604   1.12113  -0.22620
O     1.87334  -0.00359   0.29111
C     0.86906   1.44257  -1.28534
N    -0.04300   0.59985  -1.82485
C    -0.48669   0.91401  -3.20224
N    -0.61983  -0.46082  -1.35437
C    -0.77571  -0.71040   0.00327
C    -1.05793  -2.05365   0.33683
C    -1.37309  -2.41702   1.64327
C    -1.45231  -1.44289   2.64603
C    -1.19959  -0.10499   2.32214
C    -0.84032   0.26232   1.02641
H     3.62723   1.85000   0.60808
H     2.17004   2.74869   1.09694
H     2.84615   3.01106  -0.52949
H     1.02211   2.35841  -1.85222
H    -1.41524   1.49946  -3.14663
H    -0.68676  -0.03574  -3.70931
H     0.28920   1.47917  -3.72895
H    -1.02828  -2.79960  -0.46000
H    -1.57264  -3.46511   1.87911
H    -1.70834  -1.72322   3.67016
H    -1.26412   0.66514   3.09485
H    -0.63812   1.31049   0.80659
