26
Generated by autodE on: 2022-06-23. E = -689.460865 Ha
C     2.93196  -1.06747   0.91371
O     2.29599  -0.52176  -0.24680
C     0.96114  -0.25871  -0.12847
C     0.45518   1.00494  -0.05883
O     1.09964   2.17127  -0.04094
C     2.52788   2.26624  -0.02126
C    -1.03571   1.21203  -0.01168
O    -1.47109   2.35417   0.04111
C    -1.93896   0.03304  -0.01632
C    -3.41309   0.28740   0.05241
C    -1.42396  -1.22007  -0.07738
C    -2.29555  -2.43588  -0.07998
C     0.05354  -1.42525  -0.16621
O     0.52528  -2.55521  -0.28141
H     3.98759  -1.21716   0.65096
H     2.48644  -2.03171   1.19950
H     2.86273  -0.36486   1.76081
H     2.74473   3.34119   0.01970
H     2.96566   1.83164  -0.92903
H     2.94224   1.77395   0.87013
H    -3.92697  -0.15941  -0.81440
H    -3.84742  -0.18073   0.95134
H    -3.62968   1.36183   0.07619
H    -2.98712  -2.41714  -0.93878
H    -1.69781  -3.35337  -0.12879
H    -2.92299  -2.46623   0.82611
