51
Generated by autodE on: 2022-06-23. E = -1262.658066 Ha. Imaginary frequency = -318.7 cm-1
C     3.27662   0.45389   2.04145
O     3.10721  -0.70746   1.21733
C     2.12743  -0.72756   0.27996
C     1.24161  -1.76064   0.22255
O     1.08333  -2.74317   1.12075
C     1.25053  -2.44735   2.51365
C     0.43947  -1.95690  -1.01317
O     0.06645  -3.08748  -1.31128
C     0.10715  -0.77237  -1.84004
C    -0.52074  -1.11013  -3.16701
N    -1.70817  -0.14480  -0.86825
C    -2.01706  -0.59577   0.41646
C    -2.09852  -1.98561   0.65603
C    -2.45440  -2.47112   1.91256
C    -2.79415  -1.59606   2.95122
C    -2.79502  -0.22069   2.69807
C    -2.41304   0.27887   1.45371
N    -1.54684   1.16945  -1.08820
C    -2.32441   1.70755  -2.22136
C    -0.38598   1.81879  -0.79607
C     0.29252   1.92806   0.52733
C     1.16407   3.15053   0.64989
O     0.17599   1.11983   1.43635
C     0.96950   0.37873  -1.73887
C     1.28891   1.17348  -2.99017
C     2.13155   0.28914  -0.79792
O     3.09655   1.04676  -0.90812
H     4.12172   0.23007   2.70515
H     3.50924   1.34100   1.43878
H     2.37246   0.63488   2.64026
H     2.31075  -2.44828   2.79809
H     0.71675  -3.23951   3.05426
H     0.79929  -1.47218   2.75127
H    -1.01508  -0.24460  -3.61883
H    -1.25454  -1.91630  -3.05558
H     0.25939  -1.45124  -3.86979
H    -1.88755  -2.68270  -0.15052
H    -2.48493  -3.55161   2.07440
H    -3.08100  -1.98140   3.93200
H    -3.09207   0.48076   3.48214
H    -2.43688   1.35190   1.27128
H    -1.71034   1.82107  -3.12489
H    -2.72745   2.68998  -1.93868
H    -3.14990   1.01661  -2.41737
H    -0.26933   2.72655  -1.39210
H     1.74875   3.10825   1.57662
H     0.52276   4.04827   0.65611
H     1.83318   3.23755  -0.21934
H     0.39131   1.40773  -3.57163
H     1.79553   2.11298  -2.73906
H     1.96698   0.59242  -3.63913
