65
Generated by autodE on: 2022-10-23. E = -1645.533211 Ha
C     6.76981   5.21932  37.28969
O     7.45890   6.08384  36.37147
C     7.16793   5.92431  35.08504
O     6.33570   5.16095  34.63898
N     7.88495   6.82374  34.28260
O     9.15098   7.19585  34.76661
N    10.10594   6.49094  33.92977
C    11.00067   5.65975  34.66410
C    12.33778   5.61808  34.24708
C    13.24904   4.79519  34.91435
C    12.84437   4.05196  36.02568
C    11.51740   4.13250  36.46530
C    10.59161   4.92503  35.78759
C     9.39852   6.16854  32.73959
C     8.09269   6.48929  32.88950
C     6.92567   6.64648  31.91279
O     5.94675   7.36557  32.64112
C     4.71417   7.59538  31.97457
O     7.31188   7.41210  30.78217
C     7.68565   8.76059  31.03790
C     6.36662   5.30168  31.38964
C     7.30271   4.09460  31.37554
C     8.42386   4.10230  30.33528
C     9.37925   5.29848  30.29495
C    10.22260   5.65602  31.56762
C    10.88055   4.31523  31.97738
O    11.90738   3.86473  31.52000
O    10.11997   3.64705  32.84118
C    10.59314   2.36608  33.28035
C    11.25368   6.71793  31.12754
C    12.25991   6.40482  30.19697
C    13.15122   7.38121  29.74581
C    13.04762   8.69923  30.19858
C    12.03785   9.02783  31.10507
C    11.15240   8.04811  31.56347
H     7.15731   5.47180  38.28299
H     6.98057   4.16661  37.05432
H     5.68684   5.40137  37.24434
H    12.65630   6.22513  33.39943
H    14.28507   4.75338  34.57101
H    13.56046   3.41951  36.55486
H    11.19500   3.56252  37.33977
H     9.55960   4.97851  36.13037
H     4.86735   7.93521  30.93807
H     4.07591   6.69631  31.96474
H     4.19759   8.38653  32.53572
H     8.31149   9.08580  30.19533
H     6.80082   9.41457  31.10436
H     8.26546   8.85860  31.96774
H     5.52566   5.04942  32.04840
H     5.95325   5.48441  30.38580
H     7.71685   3.94780  32.38193
H     6.67895   3.20744  31.17661
H     9.00135   3.16872  30.44163
H     7.96729   4.05452  29.33140
H     8.84136   6.20725  30.00976
H    10.11441   5.10140  29.50369
H    11.59430   2.46293  33.72128
H     9.87556   2.02466  34.03423
H    10.62491   1.66362  32.43528
H    12.35562   5.38817  29.82256
H    13.92862   7.10624  29.02885
H    13.74308   9.46319  29.84308
H    11.93251  10.05431  31.46432
H    10.37875   8.33610  32.27141
