44
Generated by autodE on: 2022-10-23. E = -1000.442967 Ha
C     0.77759  -2.39555  -3.25317
O     0.33657  -1.77865  -2.03270
C     1.27563  -1.45355  -1.14684
O     2.46038  -1.64250  -1.31809
C     0.66291  -0.86010   0.13618
C     0.10389  -2.03179   0.95495
C    -1.20694  -2.01594   1.44530
C    -1.68575  -3.07626   2.22087
C    -0.85953  -4.16521   2.51103
C     0.45015  -4.18795   2.02035
C     0.92974  -3.12799   1.24769
C    -0.32776   0.15303  -0.22172
C    -0.82973   1.23489  -0.43488
C    -0.84661   2.71419  -0.46185
O    -1.43226   3.25678  -1.62049
C    -2.79150   2.90174  -1.83166
O    -1.55173   3.10518   0.70336
C    -1.56892   4.49925   0.98893
C     0.63236   3.15485  -0.46668
C     1.50550   2.54444   0.64606
C     2.26980   1.22561   0.33765
C     1.75081  -0.09109   0.95095
H    -0.12839  -2.57992  -3.84141
H     1.29192  -3.34284  -3.03655
H     1.45654  -1.72347  -3.79695
H    -1.85722  -1.16828   1.22073
H    -2.71092  -3.04906   2.59777
H    -1.23447  -4.99443   3.11546
H     1.10353  -5.03582   2.23906
H     1.95294  -3.15741   0.86755
H    -2.91630   1.80425  -1.85313
H    -3.08313   3.31540  -2.80643
H    -3.44918   3.31583  -1.05040
H    -1.78254   5.09609   0.08822
H    -0.61771   4.83932   1.43139
H    -2.37418   4.65941   1.71944
H     0.64437   4.25305  -0.40111
H     1.03582   2.89759  -1.45756
H     2.26155   3.30378   0.89681
H     0.89816   2.42401   1.55879
H     3.29256   1.34838   0.72635
H     2.38708   1.10820  -0.75255
H     1.32802   0.10322   1.94840
H     2.59119  -0.78637   1.08795
