21
Generated by autodE on: 2022-10-26. E = -644.979878 Ha
C    -4.21790  -2.31718  -0.04702
O    -3.63387  -1.05670  -0.38672
C    -2.35664  -0.86957   0.00694
O    -1.70665  -1.71881   0.59677
N    -2.02978   0.43888  -0.29134
O    -0.73545   0.76488  -0.14516
N     0.21443  -0.09225  -0.27880
C     1.44989   0.47925  -0.07389
C     2.54139  -0.39205  -0.29700
C     3.84043   0.07655  -0.13782
C     4.05883   1.40424   0.24801
C     2.97474   2.26962   0.47950
C     1.67233   1.82090   0.32681
H    -4.26299  -2.44671   1.04493
H    -3.64266  -3.14635  -0.48565
H    -5.23218  -2.30241  -0.46368
H     2.33831  -1.42150  -0.59620
H     4.68618  -0.59108  -0.31181
H     5.07932   1.77136   0.37659
H     3.15964   3.30057   0.78766
H     0.82648   2.48109   0.51696
