65
Generated by autodE on: 2022-10-23. E = -1645.428443 Ha. Imaginary frequency = -188.3 cm-1
C     5.49437   3.74846  34.80258
O     6.10445   5.04061  34.71308
C     7.29955   5.18668  35.29479
O     7.85322   4.32661  35.95378
N     7.70410   6.51065  35.12591
O     8.97337   6.76699  35.39829
N     9.89255   5.92593  34.96283
C    11.15297   6.50655  35.08875
C    12.24511   5.63676  34.89483
C    13.54423   6.13542  34.92851
C    13.76687   7.49537  35.16674
C    12.68136   8.35990  35.37617
C    11.37860   7.87926  35.33726
C     9.03529   5.90071  32.69795
C     7.99040   6.53684  32.83729
C     6.77184   7.11161  32.18986
O     7.29177   8.10545  31.31504
C     6.34748   8.72815  30.45002
O     5.83692   7.66871  33.07563
C     6.25608   8.85348  33.74323
C     6.04972   5.97736  31.43999
C     6.81719   5.33123  30.27669
C     7.86611   4.23393  30.57420
C     9.34796   4.65330  30.61503
C     9.99372   5.02966  32.00817
C    10.17131   3.72442  32.81942
O    11.21775   3.13334  32.97875
O     9.01417   3.27587  33.29619
C     9.05347   2.05451  34.05094
C    11.33137   5.72872  31.73918
C    12.41085   5.02877  31.17730
C    13.61868   5.67921  30.91351
C    13.76473   7.04182  31.19112
C    12.68408   7.75229  31.71860
C    11.47792   7.10031  31.98474
H     5.43558   3.41470  35.84803
H     6.06368   3.01684  34.21079
H     4.48751   3.86241  34.38470
H    12.05684   4.58135  34.70430
H    14.38662   5.46071  34.76470
H    14.78597   7.88731  35.18610
H    12.85905   9.42206  35.55767
H    10.53473   8.55444  35.47377
H     5.42133   8.99616  30.98166
H     6.82261   9.64678  30.07829
H     6.09339   8.08815  29.58904
H     5.60508   8.97284  34.62026
H     6.15071   9.73833  33.09439
H     7.29891   8.78249  34.08525
H     5.11266   6.40931  31.05695
H     5.76433   5.22093  32.18486
H     7.27804   6.11809  29.65781
H     6.04645   4.87065  29.63918
H     7.59220   3.68465  31.48604
H     7.79261   3.50054  29.75613
H     9.97397   3.84933  30.19862
H     9.49519   5.53148  29.96876
H     9.47622   1.24357  33.44185
H     9.65817   2.19205  34.95777
H     8.01577   1.83234  34.31945
H    12.31611   3.96768  30.95181
H    14.45110   5.11456  30.48667
H    14.71265   7.54684  30.99104
H    12.77829   8.81866  31.93556
H    10.64240   7.66538  32.39740
