29
Generated by autodE on: 2022-06-14. E = -766.672139 Ha
C     4.03455   1.55825  -0.08036
O     3.08849   0.48435  -0.04809
C     1.83459   0.79118   0.34459
O     1.51343   1.92613   0.66167
C     0.99013  -0.39939   0.31764
C    -0.35619  -0.56051   0.19954
C    -1.50065   0.33991   0.14775
C    -1.50275   1.61137   0.76037
C    -2.62643   2.43256   0.68303
C    -3.76635   2.01175  -0.01089
C    -3.78041   0.75310  -0.62075
C    -2.66600  -0.07980  -0.53282
C    -0.51443  -2.09395  -0.04788
C     0.03322  -2.37742  -1.46157
C     1.35441  -2.20975  -1.35030
C     1.57903  -1.82184   0.12655
O     0.55228  -2.59418   0.76608
H     4.15501   1.99834   0.92060
H     3.71031   2.34030  -0.78259
H     4.98093   1.11832  -0.41616
H    -0.61620   1.94358   1.29565
H    -2.61340   3.41035   1.17020
H    -4.64337   2.66043  -0.07089
H    -4.66656   0.41562  -1.16295
H    -2.69550  -1.05933  -1.01291
H    -1.48045  -2.52992   0.22361
H    -0.57671  -2.59481  -2.33749
H     2.13276  -2.25452  -2.11117
H     2.56810  -2.00174   0.55733
