61
Generated by autodE on: 2022-06-08. E = -1588.322400 Ha
C     2.82313  -2.95592   7.06916
O     2.61053  -4.02423   6.13641
C     2.98637  -5.24305   6.52512
O     3.42877  -5.47392   7.63200
C     2.68493  -6.32202   5.46717
C     2.48372  -5.69779   4.06797
C     1.32247  -6.91484   5.92617
C     0.63106  -7.91274   4.98557
C     1.46231  -9.03996   4.36834
C     2.06192 -10.09038   5.29811
C     3.07631  -9.60706   6.36827
C     2.35790  -9.12934   7.65193
O     1.28412  -9.56962   8.00651
O     3.08683  -8.28863   8.36794
C     2.54407  -7.85304   9.62343
C     3.77840 -10.87861   6.93629
O     3.56565 -12.00502   6.55051
O     4.57837 -10.58772   7.95744
C     5.22680 -11.68984   8.61513
C     4.04579  -8.59654   5.77195
C     3.85816  -7.29888   5.43187
C     5.14996  -6.90842   4.63451
C     5.60170  -5.45156   4.55046
C     6.36322  -5.02076   3.33778
O     5.38862  -4.71040   5.49181
C     4.97917  -7.69532   3.31624
O     4.72656  -7.32066   2.19960
O     5.13192  -8.98787   3.65394
C     5.41362  -8.99296   5.11419
C     6.15653 -10.26345   5.40968
N     6.20532  -7.76990   5.21844
C     6.64637  -7.41089   6.56440
H     3.89614  -2.85231   7.28580
H     2.44525  -2.04969   6.58188
H     2.27583  -3.14327   8.00399
H     2.35749  -6.48053   3.31105
H     1.58078  -5.07390   4.07034
H     3.31942  -5.05783   3.76027
H     1.42499  -7.31564   6.93577
H     0.64205  -6.05685   6.04508
H    -0.21213  -8.34985   5.54662
H     0.17939  -7.34912   4.15424
H     0.80276  -9.58748   3.67507
H     2.25527  -8.61931   3.73335
H     2.58960 -10.82679   4.67755
H     1.26814 -10.63659   5.82713
H     1.58530  -7.33940   9.46503
H     3.28039  -7.16049  10.04421
H     2.39772  -8.71427  10.29052
H     5.81884 -11.24744   9.42369
H     4.47538 -12.38157   9.02054
H     5.87897 -12.22304   7.90922
H     6.77753  -4.01731   3.49503
H     5.68582  -5.02219   2.46965
H     7.16351  -5.74255   3.11277
H     5.54412 -11.14065   5.17221
H     6.46218 -10.30644   6.45925
H     7.05317 -10.28800   4.77615
H     7.30450  -8.20380   6.94284
H     5.81563  -7.26696   7.27632
H     7.23470  -6.48551   6.51805
