20
Generated by autodE on: 2022-06-08. E = -552.863893 Ha
C    -2.93390   0.39869   0.09181
C    -1.78209  -0.56769  -0.08014
O    -1.99561  -1.77391  -0.27893
C    -0.46177  -0.00972   0.00047
C    -0.09508   1.33755   0.21909
O    -0.66841   2.39759   0.39536
O     1.34893   1.32032   0.20793
C     1.76672   0.07777   0.00087
C     3.21054  -0.23143  -0.05568
N     0.74785  -0.74108  -0.12817
C     0.86124  -2.17696  -0.36791
H    -2.90490   1.18499  -0.67864
H    -2.87872   0.90816   1.06636
H    -3.87680  -0.15883   0.01695
H     3.77875   0.69660   0.07852
H     3.47321  -0.68230  -1.02508
H     3.48448  -0.94317   0.73854
H     0.36066  -2.43293  -1.30865
H     0.38385  -2.72567   0.45201
H     1.92163  -2.44320  -0.42575
