23
Generated by autodE on: 2022-06-17. E = -351.521386 Ha
C     2.58161  -2.69015  -0.62991
C     2.06019  -1.55948  -0.10512
C     2.85250  -0.69944   0.84603
C     0.70217  -1.14996  -0.45756
C     0.06565  -0.04296   0.00086
C    -1.28423   0.31768  -0.38182
C    -1.98811   1.40197   0.03107
C    -1.46705   2.44004   0.98403
C    -3.38862   1.64120  -0.45793
H     2.00388  -3.31278  -1.32002
H     3.59479  -3.01983  -0.38358
H     3.85247  -1.11951   1.02399
H     2.97151   0.32349   0.45180
H     2.33896  -0.60381   1.81717
H     0.16918  -1.80828  -1.15420
H     0.59005   0.61796   0.69626
H    -1.77754  -0.36868  -1.08073
H    -2.12012   2.50450   1.87234
H    -1.49350   3.43849   0.51281
H    -0.44167   2.25087   1.32686
H    -3.46267   2.61653  -0.97186
H    -3.72721   0.85648  -1.15028
H    -4.09626   1.68899   0.38930
