11
Generated by autodE on: 2022-06-17. E = -376.770270 Ha
C    -2.10917   0.43300  -0.95856
N    -0.82600   0.19261  -1.60168
C     0.33045  -0.03946  -0.96483
O     1.42004  -0.22781  -1.50391
C     0.23075  -0.06116   0.50343
N     0.43182  -0.12675   1.65203
O     0.59916  -0.18717   2.84242
H    -2.39974  -0.41094  -0.31527
H    -2.86859   0.54763  -1.74110
H    -2.09261   1.35182  -0.35268
H    -0.76709   0.22280  -2.61702
