34
Generated by autodE on: 2022-06-17. E = -728.281432 Ha. Imaginary frequency = -399.0 cm-1
C    -1.50922   2.48097  -1.53578
C    -0.45790   2.15641  -0.75859
C     0.05811   3.08527   0.30892
C     0.21204   0.84714  -0.91880
C    -0.97129  -0.27867   0.47889
C    -2.26556  -0.69587  -0.10061
O    -2.43743  -0.75177  -1.32051
N    -3.21821  -1.00235   0.79892
C    -4.52862  -1.45961   0.37578
N    -0.37387  -0.33886   1.53758
O     0.69390  -0.05702   2.07219
C     1.48642   0.57722  -0.44041
C     2.18741  -0.63520  -0.76302
C     3.39546  -1.02153  -0.26902
C     4.02176  -2.31374  -0.70063
C     4.17795  -0.23793   0.74158
H    -1.88715   1.79363  -2.29689
H    -2.02013   3.44139  -1.42400
H     0.10363   2.57529   1.28486
H    -0.58007   3.97484   0.40376
H     1.08392   3.42190   0.08298
H    -0.17442   0.20167  -1.71447
H    -3.00487  -0.93552   1.78898
H    -4.45574  -2.38382  -0.21875
H    -5.03463  -0.69827  -0.23822
H    -5.13479  -1.65764   1.26761
H     1.99109   1.32217   0.17472
H     1.68331  -1.30978  -1.46440
H     3.40523  -2.85093  -1.43555
H     4.18875  -2.97331   0.16967
H     5.01848  -2.13333  -1.14141
H     5.17611   0.01338   0.34226
H     4.35470  -0.85878   1.63746
H     3.68746   0.69001   1.06026
