15
Generated by autodE on: 2022-06-02. E = -2770.224690 Ha
C    -2.25390   0.49994  -0.27566
C    -0.94321   1.14073  -0.63864
C    -1.10633   2.44734  -1.37793
C     0.27027   0.63447  -0.35416
C     1.62425   1.19225  -0.66565
Br    0.43036  -1.05836   0.59274
H    -2.83579   0.28725  -1.18924
H    -2.13765  -0.43301   0.28764
H    -2.86178   1.19917   0.32393
H    -1.66681   3.16398  -0.75303
H    -0.16201   2.91798  -1.67476
H    -1.71110   2.28784  -2.28716
H     1.55517   2.15316  -1.19162
H     2.20198   0.49616  -1.29591
H     2.20656   1.34817   0.25738
