47
Generated by autodE on: 2022-06-02. E = -3539.101016 Ha. Imaginary frequency = -340.3 cm-1
C    -1.65800  -2.14210   3.21487
C    -2.18736  -0.87708   2.58129
O    -3.32076  -0.44775   2.84899
C    -1.35465  -0.18990   1.61842
O    -0.10012  -0.66198   1.51962
C     0.83363  -0.20836   0.68441
C     1.86711  -1.21396   0.41676
C     1.56951  -2.58350   0.61248
C     2.52416  -3.56783   0.37318
C     3.80319  -3.21919  -0.07683
C     4.11774  -1.87013  -0.26462
C     3.16845  -0.87871  -0.01514
C     1.06311   1.23654   0.55322
C     1.68373   1.78225  -0.58864
C     1.96598   3.14617  -0.66634
C     1.62615   3.99961   0.38605
C     1.00332   3.47360   1.52427
C     0.72460   2.11101   1.60851
C    -1.01976  -0.43266  -1.23327
C    -0.19813  -1.42764  -1.99812
Br   -1.05870   1.28850  -2.11920
C    -2.10803  -0.76026  -0.41482
C    -3.35122   0.09586  -0.35375
C    -2.36912  -2.23855  -0.19711
H    -2.46319  -2.62234   3.78630
H    -0.82226  -1.90298   3.89244
H    -1.26753  -2.83837   2.45805
H    -1.53147   0.86933   1.43440
H     0.57592  -2.86907   0.95542
H     2.26612  -4.61747   0.53202
H     4.54942  -3.99260  -0.27220
H     5.11796  -1.58161  -0.59606
H     3.45569   0.16450  -0.13297
H     1.93579   1.13673  -1.42821
H     2.44460   3.54476  -1.56380
H     1.84359   5.06825   0.32182
H     0.74242   4.12836   2.35908
H     0.26485   1.71788   2.51638
H     0.77474  -1.01651  -2.30129
H    -0.73038  -1.74416  -2.91470
H    -0.00698  -2.32899  -1.40300
H    -3.12356   1.16859  -0.35772
H    -3.94065  -0.13257   0.54410
H    -3.97859  -0.11463  -1.23875
H    -2.72865  -2.69226  -1.13794
H    -3.14781  -2.39102   0.56300
H    -1.47176  -2.78978   0.11102
