37
Generated by autodE on: 2022-10-14. E = -934.126007 Ha
C     1.19107   2.70572   2.81732
N     1.55489   1.76936   1.77475
C     0.70014   0.78725   1.40735
O    -0.46617   0.73590   1.82947
C     1.22856  -0.24398   0.48547
N     0.37240  -1.07391  -0.14469
C    -0.90770  -1.00969  -0.52462
C    -1.36331  -2.30419  -1.07176
C    -2.70223  -2.41220  -1.74201
O    -0.60647  -3.28128  -0.99725
C    -1.67203   0.24244  -0.60646
C    -3.00498   0.31641  -0.16786
C    -3.72584   1.50571  -0.28918
C    -3.12865   2.63733  -0.85207
C    -1.80137   2.57286  -1.29264
C    -1.07703   1.38869  -1.16770
C     2.66834  -0.52710   0.34698
O     3.52600   0.00983   1.07635
N     3.04494  -1.40633  -0.61999
C     4.44527  -1.73511  -0.80961
H     1.97719   3.46638   2.90446
H     1.06657   2.21346   3.79806
H     0.24239   3.20528   2.57246
H     2.54069   1.58478   1.58759
H     0.74047  -2.01177  -0.38614
H    -2.72002  -3.32427  -2.35296
H    -3.49241  -2.49043  -0.97720
H    -2.92899  -1.53154  -2.35835
H    -3.47196  -0.55570   0.29181
H    -4.75880   1.54931   0.06370
H    -3.69347   3.56767  -0.94603
H    -1.32835   3.45165  -1.73708
H    -0.04126   1.34964  -1.51136
H     2.41651  -1.62202  -1.38611
H     4.89039  -2.09172   0.13030
H     5.02981  -0.86450  -1.15241
H     4.52152  -2.53028  -1.56161
