41
Generated by autodE on: 2022-10-07. E = -987.021572 Ha
C    -3.56197  -1.86940   0.75870
N    -2.16485  -1.55821   1.08127
C    -1.31904  -1.25304  -0.03972
N    -1.39610  -2.19799  -1.09891
N     0.12020  -1.27126   0.47702
C     0.92289  -0.25640  -0.30275
C     1.30326  -0.84333  -1.62296
N     1.55390  -1.17909  -2.70343
C     2.17349   0.14272   0.47471
C     2.07594   1.12781   1.46644
C     3.19784   1.45286   2.22969
C     4.41354   0.79737   2.00949
C     4.50760  -0.18556   1.02073
C     3.38981  -0.51313   0.25049
N    -0.05317   0.79524  -0.43365
C     0.29098   1.96345  -1.23029
C    -1.42259   0.30290  -0.45940
C    -2.04744   0.41520  -1.79036
N    -2.49017   0.54320  -2.85384
C    -2.32547   1.09640   0.55350
C    -1.66943   1.68038   1.76293
O    -3.49845   1.24472   0.28770
H    -4.12641  -1.92806   1.69920
H    -4.00402  -1.07274   0.14908
H    -3.68961  -2.83033   0.23008
H    -1.76254  -2.35109   1.58465
H    -2.35706  -2.50301  -1.24426
H    -1.03210  -1.87274  -1.99379
H     0.13603  -0.98141   1.46899
H     0.50986  -2.22464   0.41021
H     1.12933   1.63802   1.63566
H     3.12078   2.22440   2.99853
H     5.28981   1.05535   2.60835
H     5.45402  -0.70047   0.84383
H     3.47112  -1.28261  -0.51952
H     0.32226   1.74027  -2.31178
H     1.27199   2.34216  -0.91614
H    -0.45548   2.74900  -1.05096
H    -0.99350   0.96759   2.25295
H    -2.44661   2.01799   2.45990
H    -1.06198   2.54539   1.44855
