41
Generated by autodE on: 2022-10-07. E = -987.010958 Ha. Imaginary frequency = -189.9 cm-1
C    -3.60697  -1.95608   0.98715
N    -2.23873  -1.52729   1.25459
C    -1.25016  -1.73264   0.41471
N    -1.34485  -2.49835  -0.64939
N     0.04702  -1.20578   0.75358
C     0.83362  -0.03769  -0.25848
C     0.99223  -0.79266  -1.52351
N     1.12805  -1.30170  -2.55584
C     2.14831   0.17066   0.45167
C     2.14060   0.86954   1.67151
C     3.32969   1.05915   2.37033
C     4.53194   0.55709   1.85761
C     4.53947  -0.14241   0.64893
C     3.34908  -0.34337  -0.05350
N    -0.00797   1.06851  -0.34458
C     0.55219   2.41279  -0.55206
C    -1.36132   0.87598  -0.77395
C    -1.62890   0.57014  -2.12581
N    -1.85149   0.29954  -3.24448
C    -2.45459   1.22437   0.06958
C    -2.15954   1.72398   1.47196
O    -3.64807   1.13248  -0.30368
H    -4.23681  -1.60517   1.81067
H    -3.96342  -1.51607   0.04479
H    -3.66120  -3.05380   0.93260
H    -2.08051  -0.89362   2.03625
H    -2.24323  -2.88837  -0.92675
H    -0.54117  -2.70992  -1.23467
H     0.01288  -0.74269   1.67379
H     0.72592  -1.98235   0.83356
H     1.20245   1.26672   2.06559
H     3.31971   1.60322   3.31667
H     5.46448   0.71106   2.40490
H     5.47462  -0.53636   0.24645
H     3.36567  -0.89239  -0.99559
H     0.44299   2.69832  -1.61122
H     1.61375   2.45818  -0.28916
H     0.00235   3.13469   0.06808
H    -1.18135   1.40158   1.85492
H    -2.96029   1.38729   2.14725
H    -2.17255   2.82704   1.46894
