44
Generated by autodE on: 2022-06-03. E = -2085.386633 Ha
C     3.32300   3.13261   1.02627
N     2.20800   2.38481   0.47817
C     2.26716   1.06563   0.30755
O     3.26444   0.37223   0.51126
C     0.95971   0.42128  -0.24404
C     1.41166  -0.32885  -1.51776
O     1.49281   0.21928  -2.59144
O     1.79188  -1.56673  -1.25841
C     2.23443  -2.37274  -2.36381
O     0.06400   1.44334  -0.60736
C    -1.29433   1.22395  -0.20884
C    -1.70239   2.33590   0.75703
C    -2.21994   1.36232  -1.43932
C    -1.64672   1.97232  -2.67719
O    -3.38429   1.02625  -1.32684
C    -1.30299  -0.23460   0.38588
Cl   -2.42970  -0.42585   1.76798
C    -1.67449  -1.24574  -0.75184
C    -2.89026  -2.11000  -0.64847
O    -1.00431  -1.18286  -1.76624
C     0.19157  -0.44268   0.81205
Cl    0.48938   0.27902   2.46492
C     0.54948  -1.94742   0.97170
C     1.84678  -2.33645   1.61055
O    -0.28685  -2.76420   0.64503
H     3.12295   4.20456   0.91190
H     3.46584   2.90724   2.09579
H     4.25217   2.88021   0.49521
H     1.32062   2.84165   0.28847
H     1.42415  -2.46710  -3.09993
H     3.11833  -1.91859  -2.83211
H     2.48367  -3.35073  -1.93801
H    -1.08358   2.31393   1.66173
H    -1.55525   3.30045   0.24912
H    -2.75978   2.23915   1.03029
H    -0.84005   1.32912  -3.05992
H    -1.18607   2.94440  -2.44065
H    -2.43605   2.09416  -3.42959
H    -2.91184  -2.77955  -1.51771
H    -3.77836  -1.45862  -0.66426
H    -2.91029  -2.68343   0.28504
H     1.68017  -2.43313   2.69586
H     2.63180  -1.59185   1.43974
H     2.14129  -3.31968   1.22051
