16
Generated by autodE on: 2022-06-03. E = -1303.316648 Ha
C     2.86034  -1.26588  -0.23129
C     1.39945  -1.05701  -0.48052
O     0.73972  -1.79279  -1.20230
C     0.70791   0.09217   0.18400
Cl    1.65074   1.18603   1.15392
C    -0.62195   0.25532   0.02957
Cl   -1.49795   1.54444   0.76957
C    -1.51499  -0.63906  -0.82567
C    -2.07629  -1.84922  -0.14557
O    -1.83301  -0.25651  -1.93330
H     3.43064  -0.37994  -0.55289
H     3.19864  -2.15238  -0.78160
H     3.04777  -1.39325   0.84691
H    -1.29553  -2.39567   0.40095
H    -2.57206  -2.49771  -0.88021
H    -2.81951  -1.50289   0.59391
