28
Generated by autodE on: 2022-07-27. E = -781.981366 Ha
C     2.16163   1.83722   3.15129
N     1.19747   1.38464   2.17090
C     1.54103   0.49289   1.21365
O     2.67293  -0.01416   1.16182
C     0.48363   0.14935   0.24171
O    -0.58583   0.93066   0.30963
C    -1.79036   0.84587  -0.19921
C    -2.62321   2.06328  -0.00725
C    -2.33134  -0.44142  -0.63044
C    -3.78340  -0.46466  -1.02452
O    -1.65393  -1.47297  -0.57902
C     0.72565  -0.64571  -0.97110
O     0.29218  -0.32914  -2.06667
O     1.51409  -1.70084  -0.76766
C     1.87167  -2.46160  -1.93088
H     3.02233   2.33453   2.67458
H     1.67251   2.55047   3.82573
H     2.55014   0.99642   3.74810
H     0.26273   1.77680   2.17409
H    -2.03677   2.84066   0.49975
H    -2.96084   2.45670  -0.98108
H    -3.52916   1.84793   0.58255
H    -3.97695   0.26326  -1.82826
H    -4.42487  -0.18605  -0.17273
H    -4.04741  -1.47438  -1.36347
H     0.97079  -2.86905  -2.41190
H     2.41894  -1.83517  -2.65013
H     2.51262  -3.27523  -1.57247
