28
Generated by autodE on: 2022-06-03. E = -781.993058 Ha
C     3.47713  -2.26174  -0.35539
N     2.63790  -1.16739   0.08863
C     1.31350  -1.15757  -0.18684
O     0.72366  -2.13948  -0.67295
C     0.59640   0.10216   0.05910
O    -0.74590   0.13309  -0.00773
C    -1.63474  -0.72193   0.37761
C    -1.34510  -1.89954   1.20411
C    -3.02061  -0.30598   0.03212
C    -3.19735   0.96735  -0.74480
O    -3.95542  -1.02008   0.37501
C     1.21075   1.41615   0.00989
O     2.42372   1.61132   0.06771
O     0.32115   2.42146  -0.06375
C     0.85937   3.74880  -0.09643
H     3.54263  -2.31884  -1.45609
H     4.48749  -2.12102   0.04857
H     3.08417  -3.22264   0.00732
H     3.06068  -0.26570   0.30323
H    -2.26143  -2.20643   1.72265
H    -0.54615  -1.64569   1.92443
H    -0.95757  -2.73768   0.60169
H    -2.63104   1.79121  -0.28548
H    -2.80050   0.83744  -1.76526
H    -4.26514   1.21385  -0.79595
H     1.44543   3.95238   0.81179
H     1.49887   3.88875  -0.98031
H    -0.00445   4.42189  -0.14621
