44
Generated by autodE on: 2022-06-03. E = -2085.292887 Ha. Imaginary frequency = -287.9 cm-1
C     3.17362   2.56182   2.04174
N     2.15030   2.19595   1.08411
C     2.31488   1.15589   0.24990
O     3.38172   0.53618   0.12199
C     1.12891   0.74412  -0.55001
C     1.46877   0.14378  -1.88998
O     1.51260   0.84093  -2.88326
O     1.83786  -1.12121  -1.83409
C     2.21339  -1.74508  -3.07099
O     0.08685   1.54709  -0.42708
C    -1.18924   1.42191  -0.75906
C    -2.02532   2.55906  -0.28597
C    -1.59614   0.59553  -1.93132
C    -2.84489   0.99725  -2.66349
O    -0.88298  -0.31826  -2.33071
C    -1.36430  -0.32353   0.99616
Cl   -1.97141   0.71702   2.27138
C    -2.51741  -1.18789   0.47209
C    -2.87439  -2.35598   1.35865
O    -3.20700  -0.86169  -0.46935
C    -0.05451  -0.79518   1.07481
Cl    0.91824  -0.39444   2.48361
C     0.29881  -2.04754   0.34800
C     1.60223  -2.72208   0.65199
O    -0.52027  -2.52023  -0.43164
H     2.91747   3.53097   2.48707
H     3.26045   1.81184   2.84682
H     4.15042   2.64361   1.54484
H     1.21233   2.56466   1.20526
H     2.47427  -2.77857  -2.81744
H     3.07653  -1.22903  -3.51446
H     1.36634  -1.72423  -3.77107
H    -1.56398   3.03093   0.59002
H    -2.12585   3.31652  -1.08274
H    -3.03489   2.21617  -0.02286
H    -2.60403   1.88165  -3.27944
H    -3.66772   1.27005  -1.99362
H    -3.15011   0.17662  -3.32510
H    -3.44392  -3.09394   0.77855
H    -1.99855  -2.81710   1.83090
H    -3.52431  -1.96776   2.16132
H     1.54461  -3.17151   1.65746
H     2.43270  -2.00436   0.65568
H     1.77696  -3.51244  -0.08829
