35
Generated by autodE on: 2022-05-29. E = -824.498329 Ha
C     3.33128  -0.66427  -0.94757
C     2.20067  -0.02401  -1.69335
O     2.37272   0.87497  -2.50348
C     0.77887  -0.48230  -1.39304
N     0.69127  -1.76442  -0.71439
C    -0.13371  -1.69385   0.25929
C    -0.42313  -2.84275   1.16788
C    -0.77049  -0.32704   0.49812
C    -2.28740  -0.35839   0.37050
C    -2.86883  -1.18227  -0.74647
O    -3.00193   0.24787   1.15120
C    -0.22987   0.27428   1.84998
C    -0.74683   1.69371   2.01284
C    -0.05846   2.42349   1.12671
C     0.85785   1.43675   0.42148
O     1.13890   0.49853   1.47365
C    -0.02869   0.58011  -0.56749
C    -0.86452   1.46186  -1.48865
H     4.28033  -0.17343  -1.19921
H     3.37747  -1.73623  -1.19558
H     3.13674  -0.60232   0.13490
H     0.30258  -0.58254  -2.38227
H     0.03542  -2.65910   2.15418
H    -1.50438  -2.96078   1.33797
H    -0.01116  -3.77504   0.76016
H    -3.88165  -0.83056  -0.98357
H    -2.93637  -2.22774  -0.40006
H    -2.23393  -1.17959  -1.64241
H    -0.30759  -0.39698   2.71160
H    -1.55303   1.99846   2.67657
H    -0.16690   3.47788   0.87511
H     1.77831   1.84071  -0.01275
H    -1.54041   2.12052  -0.92615
H    -1.46605   0.86038  -2.18390
H    -0.19133   2.08926  -2.09347
