21
Generated by autodE on: 2022-05-29. E = -499.581884 Ha
C    -2.66380  -1.02692   0.32560
C    -1.81860   0.21699   0.44141
O    -2.26482   1.24381   0.95768
C    -0.45506   0.12913  -0.08395
C     0.58917   0.97503   0.09037
C     0.73088   2.25712   0.81409
C     1.78645   0.25036  -0.57076
C     2.12270  -0.95784   0.33050
C     1.10112  -1.80239   0.15823
C     0.15655  -1.08641  -0.83252
O     1.11687  -0.40481  -1.66106
H    -3.62787  -0.87706   0.82876
H    -2.83528  -1.26470  -0.73742
H    -2.13933  -1.89166   0.76461
H    -0.20643   2.56734   1.28892
H     1.06733   3.04862   0.12164
H     1.52363   2.16278   1.57781
H     2.61550   0.88423  -0.90451
H     2.98656  -1.02691   0.99050
H     0.89977  -2.76049   0.63644
H    -0.52490  -1.70841  -1.42104
