35
Generated by autodE on: 2022-05-29. E = -824.402707 Ha. Imaginary frequency = -283.8 cm-1
C     3.26307  -0.49103  -0.73628
C     2.20778  -0.10283  -1.74215
O     2.41794   0.76984  -2.59764
C     0.91089  -0.74298  -1.66837
N     0.65778  -1.72583  -0.79065
C     0.07947  -2.11365   0.17085
C    -0.27293  -3.14023   1.13482
C    -0.97916   0.13766   0.50218
C    -2.24346  -0.55723   0.51531
C    -2.93188  -0.88484  -0.79050
O    -2.76198  -0.90362   1.59245
C    -0.26372   0.51010   1.81996
C    -0.67229   1.95945   2.14679
C    -0.06628   2.70629   1.21559
C     0.71150   1.69606   0.34780
O     1.07531   0.71914   1.33562
C    -0.35187   0.91521  -0.47398
C    -0.89118   1.54905  -1.71589
H     4.14027   0.15812  -0.85610
H     3.56058  -1.54167  -0.88682
H     2.86703  -0.40372   0.28578
H     0.28219  -0.73182  -2.56106
H     0.52542  -3.18166   1.89412
H    -1.21687  -2.88438   1.63900
H    -0.35889  -4.12355   0.64573
H    -3.46795   0.00687  -1.15570
H    -3.66608  -1.68433  -0.62088
H    -2.22032  -1.18665  -1.57201
H    -0.30195  -0.22664   2.62842
H    -1.37213   2.25616   2.92775
H    -0.13414   3.77751   1.02809
H     1.57657   2.07091  -0.21006
H    -1.43010   2.47524  -1.44075
H    -1.58638   0.90381  -2.26497
H    -0.07078   1.83522  -2.39106
