47
Generated by autodE on: 2022-06-05. E = -3800.198583 Ha
C     0.90719  -2.30991   3.76776
N     0.56965  -1.98166   2.39693
C     1.27335  -1.07894   1.69946
O     2.28110  -0.52537   2.13811
C     0.70286  -0.71955   0.29455
C     1.76683  -0.91053  -0.82643
O     1.43409  -0.99805  -1.98794
O     3.01503  -1.04127  -0.40817
C     4.01474  -1.23885  -1.42233
N    -0.45858  -1.53876  -0.03798
C    -0.24685  -2.92490  -0.44900
C    -1.50154  -0.82079  -0.72412
C    -1.44664  -0.96092  -2.20126
N    -1.46826  -1.15321  -3.34445
C    -2.92254  -1.33013  -0.26490
C    -4.09148  -0.97143  -1.13000
O    -3.01257  -1.97713   0.75257
C    -1.30056   0.68958  -0.33091
F    -1.42729   1.44884  -1.47293
C    -2.22239   1.21684   0.78465
C    -1.98122   2.73470   0.92912
C    -0.61384   2.80357   1.66103
C    -0.17253   1.32864   1.73894
C    -1.53084   0.65549   2.03651
C     0.14137   0.76208   0.32487
Br    1.34212   1.97502  -0.67755
H     0.69233  -1.46864   4.44813
H     1.97640  -2.55179   3.85170
H     0.31749  -3.17994   4.08182
H    -0.31628  -2.29207   2.00841
H     3.80326  -2.15331  -1.99413
H     4.96720  -1.33067  -0.88869
H     4.03852  -0.37614  -2.10333
H    -1.14606  -3.51644  -0.22881
H    -0.01155  -3.01747  -1.52255
H     0.58865  -3.35221   0.11860
H    -5.01668  -1.03649  -0.54358
H    -4.14200  -1.69896  -1.95779
H    -3.97868   0.02645  -1.57809
H    -3.27583   0.95576   0.63715
H    -2.78786   3.17498   1.53084
H    -1.97456   3.24251  -0.04355
H    -0.73197   3.17562   2.68844
H     0.11742   3.44670   1.15903
H     0.63841   1.15638   2.45016
H    -1.51015  -0.43649   2.08110
H    -1.97840   1.03755   2.96418
