30
Generated by autodE on: 2022-07-27. E = -854.414354 Ha
C     2.97027  -0.84002   3.35824
N     2.18353  -0.85113   2.13786
C     1.19300   0.02596   1.93674
O     0.83002   0.86603   2.76169
C     0.52230  -0.03976   0.58224
C     1.41186   0.24157  -0.58137
O     2.37545   0.97469  -0.48397
O     1.09217  -0.45204  -1.66614
C     1.88115  -0.21362  -2.84533
N    -0.78306  -0.21817   0.50123
C    -1.49642  -0.70711   1.70598
C    -1.55619   0.16329  -0.59526
C    -1.07405   1.23541  -1.37727
N    -0.69843   2.14385  -2.00898
C    -2.78329  -0.50918  -1.01219
C    -3.47539   0.08495  -2.21927
O    -3.24524  -1.51493  -0.46359
H     3.57421   0.07847   3.43363
H     3.63937  -1.70822   3.35543
H     2.31484  -0.89352   4.23994
H     2.43394  -1.49166   1.38946
H     1.81728   0.84557  -3.13024
H     1.44698  -0.84728  -3.62622
H     2.92905  -0.48989  -2.66315
H    -2.37897  -1.25351   1.37060
H    -1.78141   0.16311   2.30983
H    -0.83756  -1.37252   2.27220
H    -4.41089  -0.46138  -2.39370
H    -2.83562   0.00390  -3.11252
H    -3.69275   1.15380  -2.06858
