47
Generated by autodE on: 2022-06-05. E = -3800.115992 Ha. Imaginary frequency = -269.7 cm-1
C     2.75134  -1.60580   3.15171
N     2.25661  -1.48138   1.79686
C     0.97106  -1.75700   1.50425
O     0.19114  -2.20557   2.35329
C     0.52602  -1.39179   0.11153
C     1.58482  -1.36259  -0.93873
O     2.70385  -0.89677  -0.80459
O     1.20931  -2.02869  -2.03483
C     2.11484  -2.00857  -3.14624
N    -0.76466  -1.69887  -0.26893
C    -1.46021  -2.87964   0.30471
C    -1.44028  -0.87779  -1.14654
C    -0.77167  -0.30951  -2.27528
N    -0.30810   0.19665  -3.21520
C    -2.93034  -0.83791  -1.19277
C    -3.54966  -0.05906  -2.32235
O    -3.61261  -1.33731  -0.30720
C    -1.16300   1.21964  -0.03897
F    -1.25742   2.01414  -1.11504
C    -2.22557   1.32567   1.02581
C    -1.93906   2.69776   1.71944
C    -0.60435   2.43875   2.47306
C    -0.25205   0.96886   2.08763
C    -1.66492   0.34542   2.06879
C     0.07261   0.98303   0.59501
Br    1.61032   1.90318  -0.03193
H     2.22922  -0.91806   3.83822
H     3.82190  -1.36723   3.15970
H     2.61221  -2.62944   3.53192
H     2.83155  -1.05311   1.07318
H     2.29031  -0.97389  -3.47319
H     3.06987  -2.47739  -2.87022
H     1.62486  -2.58002  -3.94245
H    -2.10410  -3.29435  -0.47715
H    -2.06569  -2.64303   1.18330
H    -0.69837  -3.61708   0.56735
H    -4.63705  -0.03571  -2.18100
H    -3.30721  -0.52440  -3.29061
H    -3.15671   0.96861  -2.34720
H    -3.25740   1.18231   0.68625
H    -2.76082   2.92906   2.41200
H    -1.87235   3.51553   0.98843
H     0.19346   3.13982   2.19416
H    -0.73978   2.49696   3.56257
H     0.49835   0.50135   2.73255
H    -1.68992  -0.69966   1.75990
H    -2.16725   0.44288   3.04125
