25
Generated by autodE on: 2022-06-12. E = -701.702060 Ha
C    -3.83255   2.15502  -0.05219
N    -3.14272   0.88134  -0.03974
C    -1.79044   0.82173  -0.01545
O    -1.11161   1.86384  -0.01113
C    -1.20181  -0.53771   0.00468
C    -2.08887  -1.63464   0.02017
N    -2.90321  -2.47450   0.03259
N     0.15512  -0.78043   0.01031
C     0.58993  -2.20118   0.01830
C     1.07785   0.17193   0.00727
C     2.51952  -0.05126   0.00726
O     3.13464  -1.10653   0.00492
O     3.13677   1.14873   0.01009
C     4.56791   1.12865   0.01088
H    -3.58513   2.75553   0.83794
H    -3.56831   2.74862  -0.94220
H    -4.91318   1.96823  -0.06182
H    -3.69412   0.03068  -0.04806
H     1.19106  -2.39176  -0.87613
H     1.19954  -2.37995   0.90927
H    -0.28478  -2.85324   0.02653
H     0.71660   1.19483   0.00430
H     4.94987   0.62149  -0.88767
H     4.94876   0.61401   0.90562
H     4.88527   2.17795   0.01546
