14
Generated by autodE on: 2022-06-12. E = -859.428389 Ha
N     3.26840   0.01596  -0.29498
C     2.10467   0.07209  -0.34077
C     0.70313   0.15564  -0.41373
C    -0.23317  -0.59420   0.20227
Cl   -0.04592  -1.89360   1.28722
C    -1.59383   0.03693  -0.17616
C    -1.65772   1.39730   0.55204
C    -0.74780   2.15586  -0.06491
C    -0.13835   1.24659  -1.15248
O    -1.28171   0.45593  -1.51149
H    -2.46371  -0.62491  -0.12465
H    -2.28557   1.61299   1.41503
H    -0.42470   3.17362   0.14877
H     0.34095   1.71680  -2.01600
