39
Generated by autodE on: 2022-06-12. E = -1561.116224 Ha. Imaginary frequency = -246.4 cm-1
C     4.69538  -0.83167  -0.18784
N     3.24762  -0.76107  -0.13907
C     2.55701  -1.32993   0.85872
O     3.09106  -1.88040   1.82550
C     1.04228  -1.21338   0.79510
C     0.51429  -0.97233   2.08928
N     0.32509  -0.78207   3.22479
N     0.35411  -1.60139  -0.30421
C     1.09239  -2.27461  -1.41208
C    -0.93785  -1.32697  -0.63148
C    -2.07381  -1.26913   0.30165
O    -2.05838  -0.95007   1.47372
O    -3.19637  -1.60001  -0.35499
C    -4.42261  -1.46504   0.37447
C    -0.79588   0.97164  -0.90034
Cl   -2.49075   1.36265  -1.04897
C     0.09418   1.13908  -2.16009
C     0.21847   2.65697  -2.39350
C     0.98464   3.09869  -1.39012
C     1.32185   1.85205  -0.55375
O     1.37683   0.84910  -1.58547
C     0.00812   1.41817   0.14419
C    -0.41364   1.87665   1.39970
N    -0.73123   2.25444   2.45820
H     5.04448  -0.27396  -1.06528
H     5.04041  -1.87529  -0.26589
H     5.14212  -0.39245   0.71772
H     2.74121  -0.28419  -0.88369
H     1.40082  -1.54222  -2.16629
H     1.95977  -2.80605  -1.01519
H     0.41188  -3.00285  -1.86328
H    -1.21563  -1.68875  -1.61922
H    -5.22147  -1.73455  -0.32575
H    -4.55134  -0.42846   0.71889
H    -4.43279  -2.14108   1.24157
H    -0.14113   0.49536  -3.01239
H    -0.28461   3.20902  -3.18579
H     1.28100   4.11552  -1.13598
H     2.22526   1.87120   0.06123
