22
Generated by autodE on: 2022-06-04. E = -524.865435 Ha
C     2.68838   0.98615   0.58023
C     1.87253  -0.20056   0.13449
O     2.36384  -1.32869   0.06899
C     0.47423   0.05773  -0.21657
C    -0.50828  -0.85709  -0.39961
F    -0.40342  -2.17684  -0.32885
C    -1.84160  -0.17802  -0.51449
C    -2.14658   0.37482   0.92196
C    -1.06320   1.47497   1.11475
C    -0.25706   1.40305  -0.21953
C    -1.39217   1.11621  -1.22691
H     3.69502   0.66140   0.87439
H     2.76051   1.72029  -0.23917
H     2.19544   1.49783   1.42268
H    -2.64026  -0.78152  -0.96177
H    -2.09969  -0.41986   1.67961
H    -3.16146   0.79757   0.93626
H    -0.41936   1.29392   1.98691
H    -1.52009   2.46881   1.23148
H     0.37499   2.27543  -0.42092
H    -2.17334   1.89088  -1.23424
H    -1.02739   0.94018  -2.24918
