32
Generated by autodE on: 2022-06-04. E = -860.142393 Ha
C    -0.86663   4.00067  -0.84081
O    -0.48467   2.63553  -0.62201
C    -1.48325   1.75914  -0.45527
O    -2.66046   2.07108  -0.50846
C    -1.00210   0.38237  -0.18810
O     0.28526   0.36523   0.04017
N     1.00424  -0.72088   0.30285
C     2.33664  -0.37200   0.42913
C     2.86522   0.93406   0.28872
C     4.23213   1.14717   0.44427
C     5.09877   0.08466   0.73665
C     4.57970  -1.20910   0.87360
C     3.21538  -1.44050   0.72336
C    -1.87686  -0.77659  -0.16371
C    -1.59318  -1.92041   0.62141
C    -2.47534  -2.99905   0.64320
C    -3.63999  -2.98092  -0.12944
C    -3.92537  -1.86355  -0.92350
C    -3.06380  -0.77210  -0.93944
H     0.06949   4.55928  -0.95296
H    -1.43844   4.38346   0.01704
H    -1.47442   4.08840  -1.75294
H     2.19984   1.76581   0.05898
H     4.63028   2.15906   0.33494
H     6.16925   0.26480   0.85591
H     5.24556  -2.04507   1.10071
H     2.80134  -2.44544   0.82785
H    -0.68621  -1.95237   1.21759
H    -2.24489  -3.86602   1.26639
H    -4.32066  -3.83526  -0.11856
H    -4.82707  -1.84498  -1.53957
H    -3.29811   0.08704  -1.56425
