54
Generated by autodE on: 2022-06-04. E = -1384.991419 Ha. Imaginary frequency = -286.8 cm-1
C     1.20558  -1.45684   4.18082
O     0.92743  -1.31011   2.78219
C     1.83465  -0.65921   2.06138
O     2.89395  -0.27155   2.51621
C     1.48618  -0.54192   0.60677
C     2.59388  -0.72539  -0.35648
C     3.75946   0.06013  -0.27729
C     4.78048  -0.10040  -1.21471
C     4.66245  -1.04494  -2.23887
C     3.51013  -1.83448  -2.31912
C     2.48386  -1.67873  -1.38863
O     0.32535  -1.01234   0.14252
N    -0.79487  -0.80018   0.83549
C    -1.87876  -1.33851   0.16148
C    -3.12360  -1.20305   0.81646
C    -4.28435  -1.69460   0.22601
C    -4.22564  -2.34510  -1.01248
C    -2.98868  -2.50710  -1.65281
C    -1.82015  -2.01335  -1.08124
C    -0.40362   1.70764   0.81523
C    -1.02753   1.66167   2.13888
C    -2.47976   2.05631   2.23503
O    -0.38989   1.35222   3.14751
C    -1.02286   2.32616  -0.45045
C    -0.83554   1.42167  -1.69230
C     0.69909   1.45855  -1.92142
C     1.21035   2.37439  -0.77921
C     0.05014   3.41447  -0.73502
C     0.97374   1.74445   0.58641
F     1.87993   2.02212   1.54410
H     1.30786  -0.46848   4.65063
H     2.12721  -2.03602   4.33602
H     0.34510  -1.98952   4.60157
H     3.85230   0.80987   0.50550
H     5.67368   0.52490  -1.14663
H     5.46462  -1.16678  -2.97025
H     3.41084  -2.58160  -3.10996
H     1.59047  -2.30082  -1.45504
H    -3.15266  -0.71611   1.79144
H    -5.24142  -1.57795   0.73937
H    -5.13610  -2.73488  -1.47257
H    -2.93691  -3.02761  -2.61199
H    -0.86297  -2.14583  -1.58434
H    -2.86186   1.81642   3.23591
H    -3.08599   1.55675   1.46599
H    -2.57439   3.14220   2.06449
H    -2.05187   2.67132  -0.30562
H    -1.22363   0.41048  -1.54352
H    -1.37899   1.85882  -2.54258
H     1.15669   0.46607  -1.91744
H     0.95145   1.93108  -2.88139
H     2.23267   2.74872  -0.90728
H    -0.09434   3.94425  -1.69043
H     0.15750   4.14140   0.08338
