15
Generated by autodE on: 2022-05-29. E = -458.066936 Ha
C    -3.63488  -0.64557  -0.32987
O    -2.23315  -0.69725  -0.00356
C    -1.48390   0.30647  -0.44865
O    -1.88619   1.24810  -1.09969
C    -0.09346   0.14740  -0.06383
C     1.08463   0.06903   0.22376
C     2.49746  -0.03549   0.57908
C     3.35315  -0.82935  -0.35942
O     2.90686   0.50691   1.59240
H    -4.07666  -1.54402   0.11467
H    -4.09101   0.25867   0.09722
H    -3.77126  -0.64937  -1.42052
H     4.39121  -0.83619  -0.00203
H     3.29732  -0.39332  -1.37043
H     2.96491  -1.85888  -0.42984
