22
Generated by autodE on: 2022-07-26. E = -496.775478 Ha
C    -3.32526   2.26402  -1.25955
C    -2.55834   0.99727  -1.25653
N    -1.45287   0.85305  -0.57709
C    -0.62299  -0.24920  -0.41913
C    -1.04554  -1.45240  -0.99637
N    -1.40992  -2.45622  -1.48447
C     0.62780  -0.14266   0.31731
C     1.37624  -1.30977   0.61078
C     2.57304  -1.24407   1.31989
C     3.07330  -0.01592   1.77069
C     2.35119   1.14695   1.48408
C     1.15574   1.09217   0.76563
H    -4.33954   2.10343  -0.85302
H    -3.45723   2.63091  -2.29221
H    -2.82639   3.04411  -0.66504
H    -2.90890   0.13273  -1.82693
H    -1.15340   1.68269  -0.05788
H     1.00299  -2.28138   0.27874
H     3.12000  -2.16745   1.52815
H     4.01004   0.03326   2.32993
H     2.72566   2.11910   1.81523
H     0.64948   2.03557   0.54583
