37
Generated by autodE on: 2022-05-29. E = -954.850100 Ha. Imaginary frequency = -217.5 cm-1
C    -4.46042   0.53039   2.12214
O    -3.12692   0.23126   1.67919
C    -3.01740  -0.44179   0.52579
O    -3.96830  -0.81141  -0.13756
C    -1.63106  -0.63172   0.14613
C    -0.60371  -1.30729  -0.03256
C     0.43902  -2.29821  -0.03475
C     1.20162  -2.43868   1.25740
O     0.66762  -3.00426  -1.01737
C     0.86307   0.47343  -1.23312
C     1.32773  -0.25881  -2.35727
N     1.71600  -0.88488  -3.26261
C     1.83010   0.78479  -0.16576
C     2.97635  -0.02891  -0.03204
C     3.93765   0.23835   0.93944
C     3.78791   1.32921   1.80247
C     2.66773   2.15402   1.66802
C     1.69924   1.89069   0.69749
N    -0.32334   1.12590  -1.44388
C    -1.22756   1.50279  -0.53609
C    -2.48404   2.16043  -0.99241
H    -4.34649   1.10032   3.05121
H    -5.02036  -0.39679   2.31065
H    -4.98857   1.13165   1.36810
H     2.14530  -2.97188   1.07923
H     0.58214  -3.02758   1.95635
H     1.38988  -1.46302   1.72560
H     3.10565  -0.88938  -0.69107
H     4.80933  -0.41459   1.02416
H     4.53875   1.53634   2.56802
H     2.54287   3.02000   2.32229
H     0.85654   2.57429   0.60775
H    -0.69645   1.02872  -2.39100
H    -0.88334   1.68391   0.47887
H    -3.23891   2.13623  -0.19570
H    -2.29306   3.22390  -1.22049
H    -2.89037   1.67802  -1.89463
