34
Generated by autodE on: 2022-07-27. E = -898.565725 Ha
C    -0.58496  -0.60940   3.86631
N    -0.18850  -0.88674   2.49789
C    -0.68460  -0.16901   1.48216
O    -1.60872   0.63900   1.58041
C    -0.13736  -0.45947   0.09870
O    -0.01900   0.50010  -0.75101
C     0.11933   1.85985  -0.50404
C     0.89955   2.23457   0.63411
C     1.25804   3.68493   0.84311
O     1.31946   1.36765   1.42915
C    -0.31938   2.67303  -1.60800
C    -0.94829   1.95546  -2.78545
O    -0.22144   3.91102  -1.60652
C     0.04057  -1.78935  -0.43964
C     0.73479  -1.94859  -1.66441
C     0.90254  -3.21329  -2.21303
C     0.38183  -4.33819  -1.55855
C    -0.30986  -4.19310  -0.35086
C    -0.48048  -2.93220   0.21216
H    -1.68000  -0.62561   3.95738
H    -0.15899  -1.37769   4.52268
H    -0.22418   0.38172   4.18898
H     0.65271  -1.43238   2.33438
H     1.75379   4.11151  -0.04025
H     0.34845   4.28086   1.01362
H     1.91569   3.75444   1.72011
H    -1.19515   2.69390  -3.55925
H    -1.86439   1.42777  -2.47542
H    -0.26481   1.19721  -3.19949
H     1.15433  -1.07259  -2.15964
H     1.44784  -3.33002  -3.15161
H     0.51797  -5.33151  -1.99193
H    -0.72418  -5.06883   0.15220
H    -1.03900  -2.82866   1.14098
