38
Generated by autodE on: 2022-06-12. E = -751.658060 Ha
C    -2.34463  -3.10121  -1.60754
N    -1.58640  -1.96098  -1.12929
C    -0.25261  -1.90704  -1.22978
O     0.42987  -2.80075  -1.74121
C     0.44020  -0.66050  -0.64119
C     1.38167  -0.14048  -1.76309
C     0.72700   0.56367  -2.91691
O     2.58244  -0.30412  -1.69040
C    -0.45699   0.40585  -0.19976
C    -0.86985   1.29038   0.52212
C    -1.00918   2.17637   1.68352
C    -2.16228   1.69075   2.58170
C    -1.24727   3.63848   1.27593
C     0.36279   2.04695   2.42256
C     0.93456   0.62578   2.61419
C     1.82420   0.02994   1.48471
C     1.24517  -1.10610   0.61650
H    -3.41390  -2.89785  -1.47419
H    -2.08494  -4.01614  -1.05142
H    -2.14709  -3.28463  -2.67490
H    -2.06969  -1.18326  -0.68940
H    -0.19650   0.05180  -3.22662
H     0.43923   1.57680  -2.59114
H     1.42807   0.64194  -3.75789
H    -2.24056   2.33952   3.46822
H    -3.12047   1.72647   2.04108
H    -1.99971   0.65704   2.92084
H    -2.21742   3.75243   0.76800
H    -1.25009   4.28118   2.17032
H    -0.45679   3.99430   0.59769
H     1.10317   2.65661   1.87811
H     0.23227   2.52242   3.40927
H     0.12010  -0.07792   2.85564
H     1.55569   0.66759   3.52273
H     2.19865   0.83828   0.83558
H     2.71982  -0.39277   1.96647
H     2.05686  -1.75280   0.25602
H     0.58000  -1.73383   1.23067
