72
Generated by autodE on: 2022-06-12. E = -1650.208329 Ha. Imaginary frequency = -262.0 cm-1
C   -11.43315  -2.76095  -4.50266
N   -11.14925  -3.50439  -5.71494
C   -11.60409  -4.74855  -5.89295
O   -12.19794  -5.37390  -5.00475
C   -11.24960  -5.44975  -7.23670
C   -11.27850  -4.54855  -8.49513
C   -11.36953  -5.20120  -9.84493
O   -11.10085  -3.34419  -8.40850
C    -9.72853  -5.87620  -7.07596
C    -9.17612  -6.94189  -8.03757
C    -9.08323  -8.38308  -7.51380
C   -10.30220  -9.30668  -7.61917
C   -11.50576  -9.11813  -6.64959
C   -12.29804 -10.43003  -6.65056
C   -11.01471  -8.87838  -5.20435
C   -12.25888  -7.87705  -7.09314
C   -12.06299  -6.67169  -7.32495
C   -14.43930  -5.69990  -7.87304
C   -14.83818  -4.95317  -6.67744
C   -14.50048  -3.49023  -6.55493
O   -15.51461  -5.49754  -5.80131
C   -14.41000  -5.05440  -9.18952
C   -14.73722  -5.89492 -10.40317
O   -14.13554  -3.85774  -9.32214
O   -14.79766  -7.01272  -7.98713
C   -14.61161  -8.05686  -7.22172
C   -14.95545  -8.02234  -5.72427
O   -16.07606  -8.43893  -5.41368
N   -14.03798  -7.61878  -4.84347
C   -14.39117  -7.44474  -3.44922
C   -14.80848  -9.31235  -7.98057
C   -14.28638  -9.37177  -9.28854
C   -14.39885 -10.53327 -10.04692
C   -15.03753 -11.65921  -9.51373
C   -15.56200 -11.60880  -8.21892
C   -15.44935 -10.44812  -7.45372
H   -11.17502  -3.35892  -3.61732
H   -10.83314  -1.84235  -4.49993
H   -12.49972  -2.48899  -4.43363
H   -10.84614  -3.01557  -6.55755
H   -11.82217  -6.19735  -9.81860
H   -10.33977  -5.29675 -10.22708
H   -11.91560  -4.53784 -10.52676
H    -9.60276  -6.21937  -6.03902
H    -9.14819  -4.94704  -7.16825
H    -9.71697  -6.94046  -8.99353
H    -8.15014  -6.62589  -8.28301
H    -8.29280  -8.87717  -8.10295
H    -8.70668  -8.37078  -6.47757
H   -10.68843  -9.29520  -8.65240
H    -9.93592 -10.33157  -7.44189
H   -11.65360 -11.22168  -6.23900
H   -12.59919 -10.73405  -7.66080
H   -13.19095 -10.36789  -6.01752
H   -10.53355  -7.90035  -5.08260
H   -11.85273  -8.93404  -4.49688
H   -10.28893  -9.66205  -4.93500
H   -13.52440  -3.22785  -6.97115
H   -14.56176  -3.21840  -5.49276
H   -15.25273  -2.90845  -7.11266
H   -15.68525  -6.43615 -10.27347
H   -13.95534  -6.64816 -10.57788
H   -14.79634  -5.23167 -11.27550
H   -13.24500  -7.06799  -5.18127
H   -13.48184  -7.20573  -2.88352
H   -15.11840  -6.62532  -3.32089
H   -14.83329  -8.36623  -3.04402
H   -13.75464  -8.51053  -9.68959
H   -13.97542 -10.56600 -11.05307
H   -15.12199 -12.57376 -10.10514
H   -16.06430 -12.48226  -7.79742
H   -15.86019 -10.41954  -6.44746
