38
Generated by autodE on: 2022-05-29. E = -985.382840 Ha
C     3.45492  -1.31605  -0.15578
N     2.41666  -0.35385  -0.47696
C     1.57666  -0.50716  -1.51016
O     1.67573  -1.37440  -2.37146
C     0.44214   0.58653  -1.61333
C     1.08986   1.66539  -2.37642
N     1.60132   2.49566  -3.00516
C    -0.76874   0.09457  -2.48009
C    -1.94350  -0.55166  -1.74793
C    -1.71200  -1.91027  -1.08637
C    -0.67477  -2.00450   0.03216
C    -0.80219  -0.96803   1.19882
C    -2.16035  -1.11111   1.76922
N    -3.24090  -1.23858   2.16778
C     0.18686  -1.37727   2.22396
N     1.00884  -1.69206   2.97854
C    -0.53531   0.50242   0.87545
C    -0.73676   1.57007   1.80397
C    -1.28005   1.50834   3.19354
N    -0.36023   2.72996   1.26801
N     0.07802   2.43128   0.03902
C     0.00972   1.11074  -0.26080
H     4.33637  -0.79207   0.23843
H     3.73655  -1.86395  -1.06268
H     3.10291  -2.03477   0.60259
H     2.18768   0.34028   0.22947
H    -0.35452  -0.58283  -3.23940
H    -1.15625   0.97788  -3.00618
H    -2.36533   0.15799  -1.01898
H    -2.73069  -0.69118  -2.50605
H    -2.67999  -2.26300  -0.69575
H    -1.40319  -2.64114  -1.85152
H     0.34823  -1.94524  -0.34726
H    -0.75498  -2.99804   0.49592
H    -1.12924   2.47677   3.68953
H    -0.78079   0.72980   3.79113
H    -2.35821   1.28390   3.19651
H     0.42492   3.17004  -0.56807
