30
Generated by autodE on: 2022-05-29. E = -797.084033 Ha
C    -0.77594   3.14112  -2.37545
N    -0.56793   2.19332  -1.29426
C     0.17599   2.50475  -0.23083
O     0.71738   3.59363  -0.05362
C     0.39595   1.37756   0.82961
C     0.25284   1.99490   2.15528
N     0.16044   2.46187   3.21227
C    -0.47208   0.21643   0.66699
C    -0.84377  -0.87177   0.29359
C    -0.69164  -2.21045  -0.28935
C    -1.84083  -2.59610  -1.13236
N    -2.72313  -2.88495  -1.82502
C    -0.53041  -3.21295   0.78634
N    -0.36224  -3.99339   1.62565
C     0.61864  -2.15695  -1.17418
C     1.85604  -1.58041  -0.46436
C     2.12078  -0.05302  -0.56247
C     1.86883   0.82544   0.67571
H     0.17405   3.38847  -2.87456
H    -1.21771   4.07393  -1.99427
H    -1.45880   2.69485  -3.10782
H    -0.95111   1.25613  -1.37449
H     0.80741  -3.18801  -1.50592
H     0.36440  -1.55953  -2.06180
H     2.71235  -2.08406  -0.93650
H     1.87413  -1.90655   0.58906
H     3.19172   0.06986  -0.78245
H     1.59644   0.36387  -1.43713
H     2.51793   1.71249   0.64983
H     2.10635   0.26678   1.59307
