38
Generated by autodE on: 2022-05-29. E = -985.210939 Ha. Imaginary frequency = -124.5 cm-1
C     4.44026   0.18190  -0.85807
N     3.00063   0.35712  -0.85139
C     2.22666  -0.23481  -1.76305
O     2.63062  -0.98298  -2.65076
C     0.69763   0.10615  -1.65262
C     0.49642   1.41356  -2.30125
N     0.33557   2.43665  -2.82469
C    -0.15872  -0.98455  -2.37379
C    -1.67352  -0.83987  -2.11977
C    -2.33607  -1.89898  -1.21554
C    -1.74223  -2.25516   0.15273
C    -1.55433  -1.07195   1.17361
C    -2.80805  -0.30270   1.32439
N    -3.79318   0.30175   1.40649
C    -1.19452  -1.64105   2.49067
N    -0.88340  -2.11269   3.50207
C    -0.48432  -0.17880   0.67157
C    -0.07414   1.60056   2.47116
C    -0.65469   1.46711   3.80535
N     0.66084   2.11282   1.69710
N     1.39676   2.22611   0.67791
C     0.22835   0.17100  -0.26012
H     4.88810   0.57146  -1.78665
H     4.70967  -0.88220  -0.77263
H     4.86581   0.72477  -0.00524
H     2.55931   0.99663  -0.17329
H     0.21366  -1.95546  -2.01713
H     0.07333  -0.93125  -3.44586
H    -1.89650   0.16640  -1.73211
H    -2.19469  -0.89700  -3.08733
H    -3.38989  -1.60600  -1.07741
H    -2.36202  -2.85502  -1.76468
H    -0.74487  -2.70629   0.05126
H    -2.39591  -3.00012   0.63056
H    -0.52402   2.39785   4.37964
H    -0.14865   0.64508   4.33518
H    -1.72384   1.21931   3.73951
H     1.05723   2.99815   0.09010
