43
Generated by autodE on: 2022-06-05. E = -1849.071649 Ha
C     3.73728   0.53218   3.52154
O     3.15790   0.63177   2.20999
C     1.91579   0.18402   2.06627
O     1.25737  -0.28429   2.96933
C     1.43543   0.31165   0.60344
C     2.28659  -0.61729  -0.25630
C     2.54127  -1.92679   0.17829
C     3.25457  -2.81361  -0.63005
C     3.71874  -2.40221  -1.88412
C     3.46337  -1.10012  -2.32171
C     2.74869  -0.21121  -1.51257
N     1.62417   1.72488   0.22536
C     0.48431   2.28155   0.06782
C     0.35454   3.74076  -0.27168
C     1.60642   4.54357  -0.44743
O    -0.76668   4.21065  -0.39098
C    -0.72884   1.40926   0.22819
C    -1.45010   1.13846  -1.13628
O    -0.54199   0.23686  -1.76619
C    -0.56633  -0.77008  -0.74302
C    -2.06957  -0.99198  -0.56774
C    -2.65859  -2.24433  -0.03132
F    -2.24664  -3.32016  -0.73245
F    -3.99791  -2.24198  -0.04828
F    -2.27309  -2.45594   1.24873
C    -2.61477   0.21041  -0.80449
Cl   -4.22034   0.77778  -0.62455
C    -0.09543   0.01908   0.51397
H     3.78747  -0.52021   3.83555
H     3.14272   1.10543   4.24693
H     4.74543   0.95306   3.43691
H     2.17081  -2.26157   1.15032
H     3.44693  -3.83024  -0.27945
H     4.27703  -3.09565  -2.51732
H     3.82006  -0.77076  -3.30051
H     2.54671   0.80141  -1.86185
H     2.22137   4.49044   0.46410
H     1.35047   5.58634  -0.67344
H     2.21058   4.11698  -1.26380
H    -1.42159   1.79451   0.98709
H    -1.66999   2.01433  -1.75330
H     0.02317  -1.64699  -1.02278
H    -0.44492  -0.45753   1.43318
