27
Generated by autodE on: 2022-06-05. E = -744.617367 Ha
C     0.85713   3.91599   0.56878
O     0.82789   2.50744   0.31183
C    -0.37674   1.90978   0.37477
O    -1.40084   2.52076   0.63393
C    -0.28456   0.46773   0.09803
N     0.92121   0.01129  -0.14858
C     1.98516  -0.43943  -0.38346
C     3.24548  -1.07691  -0.57519
C     4.45162  -0.18251  -0.53924
O     3.28342  -2.29457  -0.76271
C    -1.40594  -0.48583   0.08207
C    -2.74191  -0.07947   0.28395
C    -3.77861  -1.01385   0.25823
C    -3.51691  -2.36793   0.03249
C    -2.19577  -2.78213  -0.16966
C    -1.15337  -1.85784  -0.14552
H     0.49156   4.13337   1.58313
H     1.90682   4.21741   0.47362
H     0.24025   4.45725  -0.16355
H     5.13143  -0.54223   0.24965
H     4.18915   0.86796  -0.35113
H     4.97950  -0.26502  -1.50298
H    -2.96161   0.97044   0.45960
H    -4.80498  -0.67392   0.41672
H    -4.33280  -3.09397   0.01388
H    -1.97205  -3.83671  -0.34726
H    -0.13237  -2.20962  -0.30484
