16
Generated by autodE on: 2022-06-05. E = -1104.339454 Ha
F     2.29085  -0.27629  -1.33176
C     1.63462   0.15402  -0.23330
F     1.93377   1.46747  -0.10519
F     2.16430  -0.48084   0.82195
C     0.17310  -0.04314  -0.35646
C    -0.73124  -0.57643   0.47352
Cl   -0.56846  -1.31686   2.00684
C    -2.11167  -0.27456  -0.16734
C    -2.32710   1.24975  -0.03024
C    -1.43218   1.79350  -0.85946
C    -0.68624   0.59205  -1.48272
O    -1.74974  -0.37332  -1.55089
H    -2.93105  -0.94426   0.11187
H    -3.03030   1.72157   0.65442
H    -1.19700   2.83985  -1.04918
H    -0.18722   0.73885  -2.44610
