43
Generated by autodE on: 2022-06-05. E = -1848.960583 Ha. Imaginary frequency = -304.1 cm-1
C     2.02820   0.93392   4.18693
O     2.07622   1.10916   2.76680
C     2.34131   0.01415   2.03543
O     2.59863  -1.06779   2.53856
C     2.26119   0.28426   0.58494
C     2.66832  -0.65361  -0.46932
C     2.82780  -2.03446  -0.23126
C     3.14100  -2.90073  -1.28021
C     3.30261  -2.41790  -2.58189
C     3.14654  -1.04920  -2.82839
C     2.83307  -0.17781  -1.78800
N     1.96261   1.52922   0.24785
C     1.11592   2.37765   0.15310
C     0.92312   3.81555  -0.03436
C     0.98397   4.29471  -1.45280
O     0.64677   4.50711   0.93529
C    -0.80078   1.22939   0.67498
C    -1.35325   1.14794  -0.76900
O    -0.44285   0.20564  -1.34678
C    -0.64966  -0.82262  -0.36292
C    -2.19009  -0.97911  -0.46594
C    -2.90852  -2.22442  -0.11578
F    -2.48771  -3.26958  -0.85941
F    -4.23648  -2.13098  -0.27417
F    -2.67992  -2.56339   1.17465
C    -2.62366   0.26485  -0.70924
Cl   -4.20286   0.91834  -0.79942
C    -0.37744  -0.04472   0.93595
H     1.23655   0.22129   4.46184
H     1.80622   1.92310   4.60402
H     2.99377   0.57035   4.56726
H     2.69294  -2.42434   0.77439
H     3.25541  -3.96771  -1.07430
H     3.54835  -3.10088  -3.39817
H     3.27196  -0.65592  -3.83994
H     2.71825   0.88739  -1.99584
H     1.93015   3.98204  -1.92238
H     0.87947   5.38762  -1.47678
H     0.16443   3.82716  -2.02446
H    -1.07919   2.00212   1.39085
H    -1.43328   2.07349  -1.34758
H    -0.05487  -1.71908  -0.56517
H    -0.19645  -0.51744   1.89846
