56
Generated by autodE on: 2022-06-26. E = -1470.354839 Ha
C     3.07426  -2.84697  -0.32735
O     2.18334  -2.02844   0.43395
C     1.09649  -1.43600  -0.21112
C     1.62554  -0.61219  -1.40155
O     1.70458  -1.11805  -2.50714
C     2.17193   0.72907  -1.10564
C     2.93786   1.40976  -2.19503
C     1.95463   1.33394   0.09714
C     2.51771   2.68741   0.39369
C     1.10915   0.71338   1.14634
O     1.01107   1.21079   2.25622
C     0.32540  -0.56667   0.82085
O     0.03482  -1.32798   1.95468
C     1.00900  -1.59433   2.96557
C    -1.07245  -0.35089   0.09287
C    -2.26094  -0.12248   1.03418
C    -2.14226   0.45247   2.30751
C    -3.27920   0.70652   3.08005
C    -4.55240   0.39491   2.59671
C    -4.68123  -0.16323   1.32236
C    -3.54639  -0.41032   0.54643
C    -1.02899   0.83321  -0.89362
C    -0.95580   0.63087  -2.27447
C    -0.82295   1.71654  -3.14872
C    -0.77208   3.01902  -2.65184
C    -0.87835   3.23163  -1.27198
C    -1.01435   2.14947  -0.40334
N    -1.23834  -1.63247  -0.63353
C    -0.04390  -2.45501  -0.61286
C    -0.09021  -3.53708   0.40711
N    -0.17228  -4.43261   1.13876
C     0.11317  -3.15540  -1.91200
N     0.10096  -3.79804  -2.87716
H     2.54324  -3.66271  -0.84273
H     3.77067  -3.28129   0.40072
H     3.64146  -2.25941  -1.06513
H     2.48148   2.38494  -2.42848
H     2.96104   0.79967  -3.10490
H     3.97298   1.61065  -1.87335
H     2.31263   2.98517   1.42790
H     2.07729   3.43666  -0.28481
H     3.60526   2.70246   0.22120
H     1.98723  -1.15346   2.74737
H     1.12516  -2.68507   3.05150
H     0.63582  -1.19264   3.92016
H    -1.16272   0.70753   2.70453
H    -3.16250   1.15108   4.07130
H    -5.43792   0.59170   3.20548
H    -5.66936  -0.40100   0.92166
H    -3.67731  -0.81495  -0.45905
H    -0.98628  -0.38307  -2.66897
H    -0.75490   1.53510  -4.22381
H    -0.66077   3.86603  -3.33249
H    -0.85611   4.24674  -0.86932
H    -1.09919   2.33690   0.66764
H    -2.06500  -2.15186  -0.35337
