30
Generated by autodE on: 2022-06-26. E = -780.890586 Ha
N     2.02049   2.75037   1.19161
C     1.03552   2.56817   0.58534
C    -0.15588   2.41464  -0.14067
C    -0.78405   3.54795  -0.68325
N    -1.30447   4.49800  -1.12924
N    -0.80184   1.18495  -0.28975
C    -0.38437  -0.05192  -0.10386
C     1.04884  -0.35090   0.07330
C     1.48108  -1.13703   1.15499
C     2.83504  -1.43774   1.30395
C     3.76384  -0.97776   0.36464
C     3.33595  -0.21068  -0.72416
C     1.98692   0.10948  -0.86807
C    -1.38245  -1.12716  -0.09594
C    -1.00356  -2.43656  -0.45930
C    -1.94677  -3.46173  -0.48750
C    -3.27961  -3.20377  -0.14899
C    -3.66510  -1.91129   0.22283
C    -2.72693  -0.88128   0.25599
H    -1.78469   1.28253  -0.55564
H     0.75318  -1.50086   1.88233
H     3.16628  -2.03684   2.15493
H     4.82291  -1.21949   0.47971
H     4.05737   0.14239  -1.46414
H     1.65525   0.71148  -1.71625
H     0.02989  -2.64264  -0.73974
H    -1.64057  -4.46845  -0.77988
H    -4.01559  -4.01070  -0.16729
H    -4.70004  -1.70731   0.50548
H    -3.03977   0.11104   0.58952
