56
Generated by autodE on: 2022-06-26. E = -1470.313860 Ha. Imaginary frequency = -337.5 cm-1
C     1.30708  -3.88665   0.92795
O     0.46208  -2.73601   0.75619
C     0.85799  -1.56182   0.22564
C     2.17831  -1.41525  -0.46234
O     2.81080  -2.39601  -0.83966
C     2.63099  -0.03641  -0.78960
C     3.73666   0.09763  -1.79157
C     2.06462   1.03979  -0.18532
C     2.46217   2.44730  -0.50040
C     1.09882   0.82661   0.92466
O     1.02483   1.64094   1.83969
C     0.26447  -0.41173   0.94775
O    -0.23605  -0.70073   2.20464
C     0.71097  -1.04672   3.21637
C    -1.52556  -0.05010  -0.08521
C    -2.61838  -0.19617   0.93381
C    -3.49195   0.85597   1.25737
C    -4.52126   0.67083   2.18338
C    -4.70307  -0.56932   2.79936
C    -3.84703  -1.62899   2.48047
C    -2.81506  -1.44308   1.56355
C    -1.40327   1.29465  -0.75021
C    -1.64927   1.42480  -2.12672
C    -1.56431   2.66885  -2.75539
C    -1.25575   3.81155  -2.01424
C    -1.06531   3.70333  -0.63272
C    -1.14930   2.46087  -0.00612
N    -1.49079  -1.15320  -0.95573
C    -0.29010  -1.55421  -1.55619
C    -0.23956  -2.94195  -1.93064
N    -0.16263  -4.07072  -2.19493
C     0.34234  -0.71777  -2.54706
N     0.91280  -0.11327  -3.35927
H     1.52123  -4.38088  -0.02533
H     0.73022  -4.55765   1.57726
H     2.24446  -3.60898   1.42856
H     3.51135   0.88943  -2.51950
H     4.67962   0.37399  -1.28877
H     3.90212  -0.84501  -2.32648
H     3.55653   2.56715  -0.50111
H     2.10584   2.71590  -1.50978
H     2.02738   3.14985   0.21996
H     1.29116  -0.16711   3.53495
H     1.40206  -1.83496   2.88117
H     0.12814  -1.42272   4.06846
H    -3.38909   1.82492   0.77224
H    -5.19077   1.50241   2.41426
H    -5.50931  -0.71199   3.52259
H    -3.97629  -2.60346   2.95654
H    -2.13729  -2.27100   1.35383
H    -1.92732   0.54917  -2.71201
H    -1.74865   2.74184  -3.82956
H    -1.18408   4.78457  -2.50553
H    -0.85315   4.59289  -0.03556
H    -1.01899   2.39494   1.07081
H    -2.02221  -1.95218  -0.61674
