10
Generated by autodE on: 2022-05-26. E = -453.905078 Ha
C     3.29515   0.53754   0.13199
C     1.86452   0.30371   0.07517
C     0.66999   0.10876   0.02795
C    -0.76649  -0.12506  -0.03066
F    -1.09144  -1.36394   0.38566
F    -1.44846   0.74036   0.74378
F    -1.24619   0.00656  -1.28211
H     3.78578   0.15771  -0.77825
H     3.50788   1.61509   0.21711
H     3.73628   0.02701   1.00279
