19
Generated by autodE on: 2022-05-26. E = -721.999783 Ha
C     3.62587  -2.09074   0.10735
O     2.30651  -1.50625   0.10485
C     2.23846  -0.20669  -0.09629
O     3.15008   0.56412  -0.27561
C     0.81574   0.26054  -0.08459
O     0.48615   1.48196  -0.26921
C    -1.05135   1.54974  -0.19937
O    -1.58751   2.60832  -0.34552
C    -1.35803   0.20181   0.04084
C    -2.63870  -0.43823   0.23387
C    -2.63391  -1.92012   0.50171
O    -3.67224   0.22984   0.17799
O    -0.17906  -0.53688   0.10134
H     4.22800  -1.64740   0.91236
H     3.47476  -3.16127   0.27990
H     4.11120  -1.91734  -0.86311
H    -3.66725  -2.26797   0.62520
H    -2.15399  -2.45899  -0.33086
H    -2.05288  -2.14249   1.41117
