29
Generated by autodE on: 2022-05-26. E = -1175.890914 Ha. Imaginary frequency = -392.8 cm-1
C     4.21014   2.26368  -0.73188
O     2.85406   1.85136  -0.46529
C     2.67099   1.06704   0.58079
O     3.51607   0.65745   1.34223
C     1.24424   0.65282   0.69044
O     0.81496   0.04408   1.79763
C    -0.60735   0.02524   1.74541
O    -1.26401  -0.53480   2.57877
C    -0.88731   0.77333   0.53568
C    -2.17614   1.28794   0.05386
C    -2.13217   2.28419  -1.06619
O    -3.20731   0.87144   0.56351
O     0.27455   1.34596   0.12312
C    -0.22321  -1.15609  -0.68569
C    -1.51558  -1.75965  -1.02575
F    -1.35168  -2.92010  -1.68581
F    -2.25398  -0.95804  -1.82089
F    -2.25918  -2.02310   0.06324
C     1.01728  -1.10005  -0.70294
C     2.39236  -1.48201  -1.03550
H     4.60137   2.83951   0.11803
H     4.15898   2.88761  -1.63021
H     4.83955   1.38039  -0.90803
H    -3.15552   2.54137  -1.36609
H    -1.57902   1.86333  -1.92045
H    -1.59442   3.19022  -0.74306
H     2.38767  -2.39810  -1.64563
H     2.97743  -1.66202  -0.12118
H     2.88979  -0.67995  -1.60235
