19
Generated by autodE on: 2022-05-25. E = -382.428720 Ha
C    -1.85302   0.72038   0.76149
C    -0.64920  -0.19300   0.98231
C    -0.97644  -1.65914   0.62874
C    -0.39008  -1.79117  -0.74357
N     0.40881  -0.86779  -1.12099
C     0.55398   0.08656   0.01250
C     1.90795  -0.15664   0.69744
C     0.54671   1.45435  -0.53017
N     0.56190   2.53407  -0.95515
H    -1.61294   1.77110   0.98280
H    -2.68037   0.41699   1.42086
H    -2.21098   0.66214  -0.27936
H    -0.30174  -0.09419   2.01972
H    -2.05455  -1.88197   0.64680
H    -0.48715  -2.38283   1.30364
H    -0.60483  -2.64254  -1.40158
H     2.72983  -0.08256  -0.02904
H     2.07023   0.57906   1.49833
H     1.91205  -1.16551   1.13559
