10
Generated by autodE on: 2022-05-25. E = -264.352640 Ha
C     1.83887  -1.29419  -0.72105
N     0.85829  -0.76235  -0.25480
C    -0.26574  -0.22872   0.10852
C    -1.44375  -1.06511   0.53621
C    -0.36035   1.18998   0.09927
N    -0.47969   2.35103   0.10571
H     2.72555  -1.58400  -0.13651
H    -1.21017  -2.13077   0.40895
H    -1.69258  -0.88228   1.59415
H    -2.33173  -0.82077  -0.06833
