9
Generated by autodE on: 2022-05-25. E = -117.963441 Ha
C     1.12543   0.49478   0.35942
C    -0.19561   0.35473   0.20790
C    -0.87297  -0.76855  -0.51482
H     1.55325   1.34387   0.90137
H     1.82962  -0.23644  -0.05421
H    -0.85940   1.11485   0.64125
H    -1.56330  -1.30987   0.15579
H    -0.14785  -1.49013  -0.92234
H    -1.48979  -0.38702  -1.34744
