19
Generated by autodE on: 2022-05-25. E = -382.311417 Ha. Imaginary frequency = -370.5 cm-1
C    -2.03832   0.82787   0.99311
C    -1.13985  -0.33656   1.28688
C    -1.37812  -1.60598   0.83213
C    -0.12591  -1.86471  -1.04838
N     0.63267  -0.92572  -0.99658
C     1.03870   0.12559  -0.28686
C     2.16314  -0.03645   0.70223
C     0.65392   1.40727  -0.73471
N     0.30857   2.48391  -1.03808
H    -1.48537   1.72740   0.67460
H    -2.60977   1.11810   1.89410
H    -2.76531   0.58192   0.20240
H    -0.35616  -0.18151   2.03465
H    -2.29614  -1.83406   0.28104
H    -0.85327  -2.46110   1.26719
H    -0.20703  -2.70272  -1.74987
H     3.15306  -0.01843   0.21388
H     2.13150   0.78196   1.43556
H     2.05683  -0.99343   1.23451
