53
Generated by autodE on: 2022-06-24. E = -1338.277482 Ha
C    -1.39436  -0.99727  -2.85562
N    -1.47894  -0.91120  -1.41195
C    -0.77950  -1.68990  -0.57622
O    -0.09922  -2.65481  -0.95295
C    -0.81770  -1.32550   0.93273
C    -1.09876  -2.63759   1.67290
N    -1.78082  -0.30375   1.31320
C    -1.25743   1.06040   1.33170
C    -1.47754   1.70072   2.71913
C    -2.04490   1.93927   0.33588
O    -2.80145   1.48262  -0.50661
O    -1.92554   3.24009   0.56556
C    -2.59512   4.12229  -0.34667
C     0.27076   0.86727   0.94518
C     1.21036   1.88231   1.62083
C     0.49797   1.11201  -0.55479
O    -0.05732   2.03146  -1.13851
C     1.50704   0.31563  -1.29048
O     1.69901   0.76655  -2.53717
C     2.13542  -0.11472  -3.58182
C     2.14600  -0.74379  -0.70762
O     3.20077  -1.31310  -1.32775
C     3.23966  -2.73759  -1.52175
C     1.75730  -1.23602   0.62499
O     2.41723  -2.12637   1.14687
C     0.54734  -0.62678   1.34459
C     0.80923  -0.80861   2.84733
H    -0.78541  -1.86428  -3.13553
H    -2.39580  -1.10558  -3.29917
H    -0.93121  -0.08281  -3.25916
H    -2.02621  -0.13580  -1.02961
H    -2.04266  -3.06723   1.30277
H    -1.20556  -2.46066   2.74905
H    -0.29978  -3.36976   1.49880
H    -2.70785  -0.40287   0.91145
H    -2.55862   1.72004   2.92547
H    -0.99593   1.11138   3.50526
H    -1.10314   2.72941   2.76742
H    -2.20780   3.97246  -1.36480
H    -3.67903   3.94152  -0.33315
H    -2.37386   5.13830  -0.00073
H     2.25411   1.67698   1.34105
H     1.13250   1.84168   2.71246
H     0.95608   2.89867   1.29000
H     1.82913   0.36807  -4.51907
H     3.22571  -0.23844  -3.56645
H     1.64594  -1.09515  -3.49512
H     3.73952  -2.90245  -2.48661
H     2.22430  -3.15286  -1.55848
H     3.81304  -3.22165  -0.72017
H     1.68294  -0.22201   3.15998
H     1.03094  -1.85894   3.06040
H    -0.05115  -0.51150   3.45298
