26
Generated by autodE on: 2022-06-24. E = -689.460866 Ha
C    -2.46171   2.28732  -0.48981
O    -1.07999   2.17731  -0.13275
C    -0.43806   1.01047  -0.08667
C    -0.89264  -0.23685  -0.39524
O    -2.15111  -0.47610  -0.86872
C    -3.05198  -1.10839   0.04662
C     0.00950  -1.40476  -0.30146
O    -0.40162  -2.51519  -0.63411
C     1.41125  -1.22357   0.18347
C     2.27230  -2.44202   0.29286
C     1.87505   0.01305   0.49123
C     3.27734   0.24391   0.96322
C     0.98708   1.19690   0.36306
O     1.37990   2.32548   0.62504
H    -2.69290   3.35781  -0.41984
H    -2.63465   1.93474  -1.51472
H    -3.09596   1.72877   0.21323
H    -4.00927  -1.21666  -0.48035
H    -3.19721  -0.48321   0.94331
H    -2.68684  -2.10148   0.34762
H     1.72082  -3.34566   0.00858
H     3.15995  -2.35003  -0.35509
H     2.64783  -2.56180   1.32250
H     3.46066   1.30687   1.15932
H     4.00416  -0.10843   0.21279
H     3.47672  -0.32598   1.88571
