26
Generated by autodE on: 2022-06-22. E = -689.460852 Ha
C     2.88546  -1.67924   0.62333
O     1.47926  -1.88172   0.44989
C     0.63821  -0.88807   0.16414
C     0.90619   0.42599  -0.07956
O     2.17245   0.93580  -0.11012
C     2.53341   1.77871   0.98915
C    -0.18961   1.36140  -0.41263
O     0.07486   2.53208  -0.68122
C    -1.60229   0.87500  -0.43287
C    -2.67493   1.87183  -0.73860
C    -1.88010  -0.43148  -0.19863
C    -3.27792  -0.96801  -0.22990
C    -0.78259  -1.38409   0.10820
O    -1.00321  -2.56675   0.33041
H     3.29084  -2.66874   0.86993
H     3.08370  -0.98503   1.45248
H     3.34856  -1.30612  -0.29905
H     3.57136   2.09227   0.81567
H     1.88740   2.66738   1.04222
H     2.47397   1.22304   1.93978
H    -3.22854   1.58194  -1.64729
H    -3.41372   1.91117   0.07878
H    -2.25465   2.87336  -0.88639
H    -3.90447  -0.46684   0.52652
H    -3.29368  -2.04740  -0.03882
H    -3.74881  -0.77359  -1.20741
