25
Generated by autodE on: 2022-06-22. E = -631.289264 Ha
C    -3.77385   0.12293   0.70752
C    -2.43361  -0.10715   0.10996
C    -2.12687  -0.71796  -1.10745
O    -2.75990  -1.24044  -2.02886
O    -0.69159  -0.66435  -1.18141
C    -0.20879  -0.07068  -0.08595
C     1.22356   0.10494   0.07322
C     1.84881   0.18094   1.33554
C     3.23247   0.33413   1.42315
C     4.01485   0.40202   0.26631
C     3.40379   0.30683  -0.98944
C     2.02291   0.15805  -1.08979
N    -1.22781   0.28317   0.69484
C    -1.15429   1.02237   1.95101
H    -4.03132   1.19389   0.78651
H    -3.86883  -0.31598   1.71525
H    -4.52473  -0.35204   0.05992
H     1.26640   0.08624   2.25071
H     3.70358   0.38736   2.40711
H     5.09793   0.52083   0.34246
H     4.00815   0.35296  -1.89813
H     1.54856   0.09043  -2.06968
H    -0.28734   1.69131   1.93898
H    -2.06463   1.62292   2.05572
H    -1.07905   0.33108   2.80173
