52
Generated by autodE on: 2022-06-21. E = -948.106130 Ha
C     3.91019  -0.78575   2.19110
C     2.42726  -0.72252   1.94059
O     1.64281  -1.20124   2.74495
C     1.89273  -0.12885   0.60135
C     2.88341   0.85017  -0.01873
C     3.26037   1.99094   0.70942
C     4.15360   2.92055   0.17501
C     4.68696   2.72588  -1.10462
C     4.31357   1.59776  -1.83882
C     3.41746   0.66745  -1.29943
C     0.50329   0.53112   0.84253
C    -0.50078  -0.20029  -0.08395
C    -0.55693   0.49314  -1.44886
C    -1.84870  -0.30809   0.57698
C    -3.03002   0.13681   0.10386
C    -4.28595  -0.01041   0.82397
C    -5.51125   0.40996   0.42788
C    -5.78826   1.12322  -0.86625
C    -6.72126   0.18042   1.29064
C     0.17140  -1.59858  -0.16894
C    -0.34146  -2.50203  -1.28046
N     1.59217  -1.27231  -0.28921
C     2.50094  -2.40396  -0.28989
H     4.21377   0.14966   2.69037
H     4.49631  -0.85902   1.26670
H     4.13038  -1.62443   2.86572
H     2.84679   2.15367   1.70844
H     4.43299   3.80189   0.75757
H     5.38657   3.45188  -1.52573
H     4.71982   1.43764  -2.84074
H     3.12102  -0.20637  -1.87887
H     0.21398   0.38499   1.88979
H     0.52539   1.60893   0.64039
H    -0.92336   1.52482  -1.33740
H     0.44457   0.54054  -1.89782
H    -1.22478  -0.02664  -2.15100
H    -1.83662  -0.80600   1.55563
H    -3.05986   0.63629  -0.86786
H    -4.21554  -0.51973   1.79299
H    -6.25491   2.10487  -0.67031
H    -6.51758   0.55368  -1.46930
H    -4.89334   1.28788  -1.48013
H    -7.20764   1.13854   1.54826
H    -6.47208  -0.34442   2.22476
H    -7.48194  -0.41181   0.75061
H    -0.02193  -2.11327   0.79784
H     0.04715  -3.52622  -1.17952
H    -1.43987  -2.55931  -1.22839
H    -0.06012  -2.12464  -2.27494
H     2.43350  -3.03396   0.62266
H     2.28653  -3.05163  -1.15210
H     3.53945  -2.06133  -0.39411
