29
Generated by autodE on: 2022-06-21. E = -596.535495 Ha
C    -3.91726  -0.53650   0.44732
C    -2.64603   0.16824   0.16086
N    -1.49446  -0.42882   0.06582
C    -1.41053  -1.87994   0.30964
C    -0.34518   0.24513  -0.46009
C    -0.55516   1.02691  -1.62478
C     0.61924   1.75945  -2.25679
O    -1.67965   1.16773  -2.18707
C     0.90645   0.00330   0.26495
C     2.16175  -0.14908  -0.36900
C     3.32402  -0.38099   0.36843
C     3.27677  -0.49826   1.76189
C     2.04105  -0.38081   2.40769
C     0.88109  -0.12965   1.67507
H    -4.08258  -1.37119  -0.25413
H    -4.76083   0.16180   0.38375
H    -3.89984  -0.97336   1.46174
H    -2.63816   1.24904   0.02503
H    -1.82896  -2.12871   1.29336
H    -1.98033  -2.40858  -0.46875
H    -0.36435  -2.19240   0.26389
H     0.22398   2.65932  -2.75034
H     1.39459   2.05138  -1.53645
H     1.09466   1.13786  -3.03369
H     2.22595  -0.11718  -1.45610
H     4.27634  -0.49308  -0.15673
H     4.18739  -0.68890   2.33450
H     1.98010  -0.47485   3.49521
H    -0.06952  -0.02468   2.20317
