29
Generated by autodE on: 2022-07-27. E = -596.535391 Ha
C    -3.56356  -1.32605  -1.19014
C    -2.56964  -0.60791  -0.35838
N    -1.28258  -0.72189  -0.51263
C    -0.75968  -1.56023  -1.60699
C    -0.36248  -0.21713   0.46132
C    -0.69153  -0.45125   1.82062
C     0.25127   0.03112   2.91344
O    -1.74326  -1.04264   2.20089
C     0.82573   0.44769  -0.08534
C     2.12115   0.30796   0.46485
C     3.22149   0.96005  -0.09420
C     3.07833   1.75288  -1.23811
C     1.81084   1.88140  -1.81676
C     0.70640   1.24633  -1.24889
H    -3.40191  -2.41701  -1.15330
H    -4.58034  -1.10213  -0.84514
H    -3.47718  -1.02983  -2.25037
H    -2.90038   0.06631   0.43030
H    -1.07205  -2.60177  -1.44289
H    -1.14960  -1.21664  -2.57382
H     0.33177  -1.50803  -1.61036
H     0.82325   0.92668   2.63778
H     0.96968  -0.75995   3.18552
H    -0.35531   0.24701   3.80513
H     2.27592  -0.34454   1.32356
H     4.20763   0.82860   0.35913
H     3.94335   2.25475  -1.67778
H     1.67759   2.49174  -2.71395
H    -0.27624   1.37526  -1.70872
