41
Generated by autodE on: 2022-06-03. E = -3751.320559 Ha. Imaginary frequency = -319.3 cm-1
C     2.34127  -0.19805  -4.26663
O     2.16646  -0.14145  -2.83816
C     2.01815   1.05427  -2.29719
O     2.05841   2.11122  -2.88422
C     1.74598   0.91748  -0.83031
O     2.47169  -0.02305  -0.15328
C     2.29660   0.20019   1.21542
O     2.72847  -0.54147   2.05990
C     1.53679   1.44045   1.26346
C     1.17040   2.14124   2.43077
N     0.84116   2.67251   3.41247
C    -0.32029   0.00817   0.75211
C    -0.18133  -0.02276  -0.48973
C    -0.97433  -0.45352  -1.68574
C    -0.38347  -1.66206  -2.29754
N     0.03523  -2.64206  -2.75176
C    -1.00487   0.62562  -2.69730
N    -1.05472   1.49071  -3.46579
C    -2.44318  -0.78980  -1.24885
C    -3.17547   0.37114  -0.54357
C    -3.45760   0.19712   0.96060
C    -2.38444   0.60318   1.97589
C    -1.06037  -0.16679   1.99317
Br   -1.36101  -2.13926   2.29463
N     1.50331   1.96801  -0.00124
C     0.66698   3.11652  -0.34217
H     3.27508   0.30598  -4.55109
H     2.38365  -1.26325  -4.51628
H     1.48784   0.28331  -4.76370
H    -2.37201  -1.67249  -0.59744
H    -2.97905  -1.09804  -2.15776
H    -2.65113   1.32537  -0.71939
H    -4.14971   0.47880  -1.04188
H    -4.33635   0.81632   1.20020
H    -3.76679  -0.84347   1.15375
H    -2.81440   0.53387   2.98684
H    -2.10484   1.66094   1.82507
H    -0.47916   0.11070   2.87864
H     0.86973   3.41427  -1.37306
H     0.90976   3.93902   0.34103
H    -0.39120   2.83513  -0.22543
