43
Generated by autodE on: 2022-06-22. E = -1202.993998 Ha
C    -4.28377  -2.50244   0.62975
O    -3.59299  -1.45316  -0.06608
C    -2.73216  -0.72775   0.64786
O    -2.58053  -0.83483   1.84611
C    -1.96898   0.23535  -0.23752
N    -1.41035   1.34553   0.52293
C    -0.28849   1.66756   0.00466
C     0.55935   2.78208   0.54516
C     0.00554   3.63484   1.64123
O     1.67456   2.93490   0.07080
C     0.11364   0.88249  -1.24673
C    -0.26851   1.70314  -2.48540
C     1.59581   0.53391  -1.29407
O     2.32450   0.84139  -2.22054
C     2.09179  -0.24452  -0.12570
O     3.35680  -0.20619   0.28910
C     4.27276   0.81308  -0.14352
C     1.23972  -1.14573   0.46550
O     1.72468  -1.93187   1.45173
C     0.85825  -2.28042   2.54255
C    -0.08035  -1.41979  -0.11361
O    -0.66521  -2.46646   0.15095
C    -0.76602  -0.39633  -1.03496
C    -1.19036  -1.10549  -2.31898
H    -4.92941  -2.98357  -0.11353
H    -4.88769  -2.08841   1.44939
H    -3.55975  -3.22546   1.03233
H    -2.68409   0.64157  -0.97120
H    -0.28758   3.00485   2.49503
H     0.75425   4.37397   1.95194
H    -0.90713   4.14259   1.29065
H    -0.00712   1.16272  -3.40428
H     0.28115   2.65445  -2.48054
H    -1.34482   1.92195  -2.49554
H     5.11776   0.75454   0.55383
H     4.61713   0.61620  -1.16673
H     3.81028   1.80674  -0.08487
H     1.50520  -2.38958   3.42392
H     0.33693  -3.22688   2.34626
H     0.11848  -1.48768   2.72886
H    -1.77953  -1.99721  -2.07016
H    -0.30547  -1.42134  -2.89162
H    -1.80451  -0.44816  -2.94746
