17
Generated by autodE on: 2022-06-22. E = -513.452667 Ha
C     3.92700   0.73427  -0.53789
O     2.98431   0.12190   0.35077
C     1.68569   0.30242   0.06196
O     1.28392   0.94841  -0.89406
C     0.82913  -0.37304   1.03372
N    -0.44977  -0.26698   0.87537
C    -1.59848  -0.03228   0.64828
C    -2.76407  -0.47351  -0.09471
C    -2.88212   0.15006  -1.45901
O    -3.58428  -1.23352   0.40087
H     4.91969   0.47821  -0.14952
H     3.79562   1.82635  -0.54968
H     3.80782   0.34341  -1.55923
H     1.22953  -0.95300   1.86631
H    -3.51835   1.04797  -1.37946
H    -3.37231  -0.56496  -2.13541
H    -1.90168   0.45350  -1.85428
