43
Generated by autodE on: 2022-06-22. E = -1202.918640 Ha. Imaginary frequency = -357.0 cm-1
C    -2.89231  -2.93408   1.57974
O    -2.94029  -1.80769   0.68976
C    -2.22094  -0.73849   1.03875
O    -1.61437  -0.62430   2.08912
C    -2.20764   0.25066  -0.05233
N    -1.56012   1.38340   0.14080
C    -0.57453   1.99544  -0.20939
C     0.02045   3.33012   0.06108
C     0.77733   3.42889   1.34763
O    -0.08832   4.20784  -0.77370
C     0.36562   0.73870  -1.68830
C     0.41313   1.69799  -2.85284
C     1.58387   0.69226  -0.81949
O     2.48706   1.52114  -0.93677
C     1.64585  -0.32012   0.25202
O     2.59600  -0.12410   1.21645
C     3.90376  -0.61099   0.89512
C     0.80157  -1.39002   0.23139
O     0.72101  -2.39698   1.10042
C     1.26402  -2.30148   2.42257
C    -0.17702  -1.55896  -0.90412
O    -0.69690  -2.66274  -1.07222
C    -0.46910  -0.39795  -1.74744
C    -1.40913  -0.61105  -2.90053
H    -3.53368  -3.69962   1.12895
H    -3.27009  -2.65603   2.57381
H    -1.86000  -3.30115   1.66202
H    -2.98662   0.22174  -0.81674
H     0.12449   3.14531   2.18858
H     1.15901   4.45049   1.47442
H     1.61255   2.70877   1.32745
H     1.05307   2.55834  -2.62640
H    -0.58907   2.06140  -3.11648
H     0.82660   1.18919  -3.74002
H     4.30745  -0.10282   0.00656
H     3.88131  -1.69900   0.71805
H     4.54210  -0.39508   1.76224
H     0.96650  -1.35560   2.89368
H     0.82999  -3.14399   2.97573
H     2.35852  -2.39295   2.41233
H    -2.10985  -1.42716  -2.68355
H    -0.84810  -0.87872  -3.81352
H    -1.98209   0.29853  -3.12692
