71
Generated by autodE on: 2022-06-13. E = -1783.053947 Ha
C    -2.84043   0.35364   3.63296
O    -2.43671  -0.26259   2.40183
C    -1.85104   0.51909   1.50262
O    -1.73733   1.72073   1.65190
C    -1.37466  -0.28453   0.25746
C    -2.58494  -1.03233  -0.33368
C    -3.89614  -0.55996  -0.17859
C    -4.97351  -1.23585  -0.75646
C    -4.75962  -2.40092  -1.49843
C    -3.45701  -2.88187  -1.65622
C    -2.38196  -2.20304  -1.07779
N    -0.31525  -1.22825   0.60212
C    -0.57693  -2.26041   1.59428
C     1.02615  -0.67097   0.53287
C     1.39577  -0.11861   1.97294
C     2.79604  -0.00618   2.51085
O     0.46530   0.17878   2.70040
C     2.03699  -1.72198   0.02847
C     1.59220  -2.94039  -0.50870
C     2.48533  -3.87312  -1.04226
C     3.85513  -3.60496  -1.07043
C     4.31360  -2.38491  -0.56830
C     3.41731  -1.45930  -0.02909
C     0.89963   0.55109  -0.52067
C     1.74242   1.73405  -0.05772
C     3.02907   1.92086  -0.59008
C     3.88356   2.91191  -0.09616
C     3.46934   3.74052   0.94754
C     2.18963   3.56925   1.48480
C     1.33943   2.58115   0.98853
C     1.32194   0.06957  -1.97476
C     1.12654   1.22642  -2.94339
C    -0.19311   1.29737  -3.14315
C    -0.77702   0.19820  -2.26872
O     0.23672  -0.79364  -2.31717
C    -0.66956   0.70119  -0.75402
C    -1.29790   2.08987  -0.79435
O    -0.73356   3.16060  -0.82987
O    -2.61658   1.96663  -0.99640
C    -3.38343   3.17252  -1.06166
H    -3.58072   1.14333   3.44130
H    -3.28333  -0.44497   4.23869
H    -1.96702   0.78248   4.14406
H    -4.09313   0.34881   0.39021
H    -5.98614  -0.84826  -0.62213
H    -5.60267  -2.93090  -1.94798
H    -3.27246  -3.79130  -2.23302
H    -1.36818  -2.57411  -1.21424
H    -0.69678  -1.87889   2.61896
H    -1.48705  -2.81459   1.32726
H     0.25675  -2.97378   1.60272
H     2.73317   0.42566   3.51772
H     3.42991   0.63036   1.88024
H     3.26567  -0.99904   2.56720
H     0.52843  -3.16067  -0.52979
H     2.09973  -4.81225  -1.44631
H     4.55542  -4.33152  -1.48909
H     5.37796  -2.14047  -0.60144
H     3.81344  -0.50588   0.30548
H     3.39870   1.27978  -1.38905
H     4.87944   3.02725  -0.53033
H     4.13559   4.51285   1.33903
H     1.84693   4.21101   2.30007
H     0.35244   2.46237   1.42631
H     2.27288  -0.45938  -2.02977
H     1.91366   1.87609  -3.32177
H    -0.76906   2.02560  -3.71273
H    -1.75800  -0.19441  -2.54074
H    -3.04481   3.80439  -1.89517
H    -4.42247   2.86060  -1.21950
H    -3.29422   3.72981  -0.11761
