29
Generated by autodE on: 2022-06-13. E = -766.672173 Ha
C    -3.02840   2.97874  -0.83614
O    -2.61431   1.65245  -0.49137
C    -1.32878   1.33176  -0.74709
O    -0.54908   2.12762  -1.24767
C    -1.05831  -0.04328  -0.33763
C     0.09573  -0.68652  -0.01049
C     1.50955  -0.33416  -0.02435
C     2.05321   0.61001  -0.92137
C     3.41429   0.90959  -0.89510
C     4.26065   0.28417   0.02716
C     3.73723  -0.65677   0.91984
C     2.37994  -0.97314   0.88737
C    -0.40434  -2.03183   0.60494
C    -1.05464  -1.68916   1.96070
C    -2.18322  -1.04910   1.64018
C    -2.18989  -1.01113   0.09727
O    -1.56208  -2.26618  -0.20469
H    -4.09010   3.04351  -0.57051
H    -2.89506   3.15857  -1.91315
H    -2.45089   3.72502  -0.27080
H     1.39722   1.10213  -1.63574
H     3.81932   1.63742  -1.60208
H     5.32612   0.52488   0.04610
H     4.39078  -1.15146   1.64186
H     1.98959  -1.71055   1.59074
H     0.29926  -2.86915   0.57224
H    -0.61154  -1.88830   2.93566
H    -2.92788  -0.57867   2.28119
H    -3.15309  -0.89234  -0.40687
