42
Generated by autodE on: 2022-06-13. E = -1016.338486 Ha
C    -0.53679   1.91174   3.16808
O    -0.47596   1.43365   1.82092
C    -1.38085   0.51039   1.46994
O    -2.33592   0.22729   2.17181
C    -1.18788  -0.01843   0.09821
C    -2.37493  -0.51452  -0.61028
C    -3.61136   0.15820  -0.52307
C    -4.73403  -0.33179  -1.18856
C    -4.64996  -1.50345  -1.94936
C    -3.43198  -2.18595  -2.03572
C    -2.30665  -1.70012  -1.37115
N     0.02736  -0.02115  -0.48076
C     0.12976   0.08405  -1.95493
C     1.21197  -0.16763   0.21064
C     1.24231  -0.93317   1.42670
C     2.59976  -1.31135   1.98732
O     0.21513  -1.33196   2.01699
C     2.45444   0.36599  -0.40739
C     2.68619   1.75352  -0.39359
C     3.84468   2.28816  -0.96179
C     4.79328   1.44251  -1.54645
C     4.57377   0.06137  -1.56425
C     3.41096  -0.47220  -1.00309
H    -0.44840   1.07288   3.87360
H     0.31295   2.59441   3.28534
H    -1.48002   2.44673   3.35192
H    -3.68661   1.07801   0.05846
H    -5.68128   0.20778  -1.11744
H    -5.53182  -1.88548  -2.46873
H    -3.36010  -3.10883  -2.61592
H    -1.36677  -2.25237  -1.42486
H     0.79165   0.92464  -2.19204
H    -0.85649   0.27925  -2.38095
H     0.55674  -0.83487  -2.37479
H     3.10404  -2.05711   1.35379
H     3.26257  -0.43562   2.04920
H     2.45720  -1.73659   2.98954
H     1.94683   2.41027   0.07098
H     4.01054   3.36804  -0.94276
H     5.70151   1.85946  -1.98812
H     5.30847  -0.60400  -2.02408
H     3.23508  -1.54961  -1.03161
