42
Generated by autodE on: 2022-07-27. E = -1016.338436 Ha
C     0.01762   2.02197   3.16879
O    -0.12053   1.02956   2.14753
C    -1.14234   1.18622   1.29472
O    -2.02845   2.00281   1.47732
C    -1.16581   0.18270   0.20501
C    -2.46933  -0.15214  -0.38329
C    -3.62048  -0.28815   0.41991
C    -4.85428  -0.59201  -0.15353
C    -4.96819  -0.76221  -1.53799
C    -3.83597  -0.62097  -2.34723
C    -2.60018  -0.31580  -1.77816
N    -0.03510  -0.41784  -0.21431
C    -0.10602  -1.79503  -0.75583
C     1.20600   0.17991  -0.21339
C     1.32173   1.60517  -0.36150
C     2.70136   2.16767  -0.64365
O     0.34901   2.38765  -0.30658
C     2.40846  -0.69634  -0.20652
C     3.13891  -0.96474  -1.37539
C     4.26960  -1.78416  -1.33473
C     4.68214  -2.35249  -0.12511
C     3.95969  -2.09592   1.04476
C     2.83274  -1.27122   1.00450
H     0.10821   3.02127   2.71883
H     0.93472   1.76953   3.71397
H    -0.84476   2.00487   3.85118
H    -3.54204  -0.16838   1.50132
H    -5.73334  -0.70250   0.48563
H    -5.93655  -0.99941  -1.98454
H    -3.91740  -0.73907  -3.43026
H    -1.72752  -0.18439  -2.42053
H     0.59717  -2.41891  -0.19237
H    -1.11518  -2.19084  -0.62447
H     0.17816  -1.80558  -1.81500
H     3.08349   1.84046  -1.62226
H     3.42323   1.82908   0.11521
H     2.64252   3.26393  -0.62964
H     2.81068  -0.53148  -2.32277
H     4.82755  -1.98473  -2.25255
H     5.56532  -2.99506  -0.09445
H     4.27760  -2.53563   1.99320
H     2.26845  -1.06316   1.91673
