24
Generated by autodE on: 2022-07-27. E = -443.787633 Ha
C     3.06068  -1.38873  -0.10131
N     1.75812  -1.09094  -0.25688
C     1.07092  -1.89039  -1.29470
C     1.06766  -0.20730   0.51215
C     1.81873   0.35217   1.67525
C    -0.27254   0.26816   0.18458
C    -1.18332   0.58061   1.22846
C    -2.46245   1.06469   0.96442
C    -2.89485   1.26111  -0.35367
C    -2.01030   0.97814  -1.39960
C    -0.72380   0.50406  -1.14003
H     3.47412  -2.19499  -0.70108
H     3.67498  -0.82759   0.59470
H     0.00225  -1.96063  -1.07569
H     1.50491  -2.89698  -1.28796
H     1.22027  -1.44469  -2.28605
H     1.18146   0.98851   2.29990
H     2.25038  -0.45125   2.30548
H     2.67955   0.97110   1.34772
H    -0.88329   0.41670   2.26545
H    -3.13543   1.28136   1.79843
H    -3.89926   1.63779  -0.55993
H    -2.31637   1.14844  -2.43540
H    -0.04597   0.34977  -1.97927
