47
Generated by autodE on: 2022-06-18. E = -795.303989 Ha. Imaginary frequency = -304.4 cm-1
C     6.27566  -0.54324  -0.81016
C     5.73579   0.24135   0.35400
C     6.76498   0.64768   1.37303
C     4.42826   0.57507   0.50638
C     3.31919   0.26664  -0.37332
C     2.03582   0.65034  -0.11803
C     0.86571   0.40466  -0.94083
C     1.06478  -0.25920  -2.28808
C     0.19736  -1.74356   0.26566
N    -1.09297  -1.42834   0.09074
C    -1.77871  -2.12519  -1.00457
C    -1.60389  -0.25656   0.61972
C    -1.02397   0.14928   1.95463
C    -3.03362   0.08990   0.38913
C    -3.90067   0.29440   1.48522
C    -5.23509   0.66279   1.30258
C    -5.74915   0.84568   0.01548
C    -4.90572   0.65954  -1.08426
C    -3.57120   0.29414  -0.90078
C    -0.32513   1.08211  -0.66564
H     6.77810  -1.46347  -0.46032
H     5.50488  -0.83439  -1.53630
H     7.04720   0.03760  -1.34790
H     7.27762  -0.23587   1.79678
H     6.32320   1.21883   2.20364
H     7.55874   1.26585   0.91384
H     4.16456   1.15034   1.40390
H     3.52912  -0.30579  -1.28155
H     1.85511   1.22440   0.80029
H     1.64328   0.39784  -2.96646
H     1.61977  -1.20740  -2.22338
H     0.10174  -0.46760  -2.77569
H     0.58667  -2.60213  -0.27772
H     0.72903  -1.38790   1.13937
H    -2.84203  -2.24705  -0.77242
H    -1.32498  -3.11542  -1.12210
H    -1.67602  -1.57113  -1.94681
H    -1.45973   1.10111   2.28359
H    -1.22658  -0.60998   2.73395
H     0.06286   0.29182   1.91406
H    -3.53216   0.14862   2.50136
H    -5.87843   0.80262   2.17508
H    -6.79254   1.13570  -0.12902
H    -5.28558   0.81083  -2.09786
H    -2.93452   0.18463  -1.77756
H    -1.06935   1.18816  -1.45705
H    -0.33351   1.87099   0.09020
