44
Generated by autodE on: 2022-06-01. E = -1241.101225 Ha
C     3.29544  -2.24394   1.03609
O     2.14459  -1.57074   0.50518
C     2.12920  -0.24910   0.59502
O     3.05357   0.40484   1.03783
C     0.83759   0.39931   0.11753
C     1.09754   1.90158  -0.27255
C     2.22204   1.88458  -1.30698
C     1.66165   1.42097  -2.43109
C     0.20000   1.17118  -2.08041
O    -0.03472   2.19122  -1.10322
C     0.14117  -0.12467  -1.20554
C     0.73543  -1.32457  -1.93372
C    -1.30253  -0.45615  -0.63852
C    -2.12856  -1.22985  -1.65581
C    -2.35363  -2.70282  -1.50117
O    -2.55459  -0.60441  -2.61110
C    -1.96207   0.87251  -0.18032
O    -2.89128   1.49809  -0.62839
O    -1.32183   1.20130   0.96928
C    -0.30773   0.16420   1.16712
C     0.09436   0.15068   2.64949
C    -0.59283   1.10335   3.57023
O     0.94807  -0.63731   3.00497
N    -0.93948  -1.04605   0.67286
C    -2.03608  -1.54432   1.51171
H     3.12542  -3.31215   0.86082
H     4.20743  -1.91156   0.52073
H     3.38424  -2.04164   2.11289
H     1.17138   2.59752   0.56860
H     3.26433   2.12611  -1.10873
H     2.13266   1.19007  -3.38568
H    -0.54161   1.20564  -2.88544
H     0.61436  -2.25211  -1.36520
H     1.80761  -1.17525  -2.11300
H     0.24315  -1.43916  -2.91174
H    -1.52010  -3.20239  -0.99149
H    -3.26234  -2.85340  -0.89417
H    -2.52838  -3.14360  -2.49167
H    -0.21197   0.96925   4.59014
H    -1.68064   0.93359   3.53683
H    -0.42480   2.13706   3.22778
H    -1.63678  -1.78092   2.50702
H    -2.42807  -2.47612   1.09235
H    -2.87170  -0.83106   1.62764
