44
Generated by autodE on: 2022-06-01. E = -1241.054476 Ha. Imaginary frequency = -362.6 cm-1
C     2.88260  -2.33637   1.49890
O     1.95571  -1.60148   0.69108
C     2.05051  -0.26728   0.71067
O     2.92533   0.32333   1.33043
C     0.99639   0.42437  -0.03596
C     1.23464   1.93458  -0.29377
C     2.35401   2.00274  -1.35116
C     1.78216   1.58599  -2.48743
C     0.32187   1.27390  -2.10309
O     0.09212   2.25996  -1.09436
C     0.37347  -0.02983  -1.25917
C     0.74056  -1.28330  -2.00513
C    -1.59384  -0.49299  -0.55684
C    -2.26862  -1.22804  -1.66231
C    -2.58530  -2.68860  -1.54884
O    -2.53140  -0.59072  -2.67416
C    -2.00910   0.89753  -0.27942
O    -2.71911   1.67481  -0.86192
O    -1.41341   1.20589   0.93056
C    -0.69736   0.10171   1.34039
C    -0.09561   0.18365   2.70254
C    -0.02934   1.55389   3.30442
O     0.37329  -0.80523   3.24501
N    -1.20623  -0.98873   0.70216
C    -0.94402  -2.38264   1.05688
H     2.59716  -3.39012   1.39984
H     3.91132  -2.18764   1.13986
H     2.81080  -2.02061   2.54877
H     1.31874   2.58302   0.58347
H     3.39153   2.26792  -1.15219
H     2.22390   1.42323  -3.46971
H    -0.43906   1.29990  -2.89039
H     0.67504  -2.18756  -1.39241
H     1.78605  -1.19010  -2.34773
H     0.11110  -1.40561  -2.89803
H    -1.65616  -3.27280  -1.46839
H    -3.18539  -2.89344  -0.64983
H    -3.13388  -2.99894  -2.44703
H     0.45621   1.49115   4.28575
H    -1.03991   1.98006   3.40000
H     0.54440   2.22350   2.64450
H    -0.41359  -2.39813   2.00987
H    -0.33151  -2.87705   0.29655
H    -1.89748  -2.91424   1.16472
