19
Generated by autodE on: 2022-06-16. E = -664.726216 Ha
N     4.41125   1.49359  -0.82248
C     3.43950   0.91463  -0.54073
C     2.27724   0.20802  -0.19878
O     2.24947  -1.00966   0.27857
C     0.85798  -1.37964   0.49468
O     0.57581  -2.46992   0.93723
C     0.15848  -0.21772   0.07669
C    -1.24902   0.08718   0.03107
C    -1.70908   1.32186  -0.47485
C    -3.07388   1.59702  -0.50978
C    -3.99981   0.65535  -0.04444
C    -3.54895  -0.57023   0.45833
C    -2.18644  -0.85994   0.49866
O     1.07646   0.70429  -0.33231
H    -0.99227   2.05894  -0.84018
H    -3.41937   2.55516  -0.90454
H    -5.06896   0.87668  -0.07391
H    -4.26574  -1.30872   0.82441
H    -1.83828  -1.81531   0.89197
