77
Generated by autodE on: 2022-10-25. E = -1770.033715 Ha
C   -13.34624   2.50388  -1.97982
N   -13.54531   1.30884  -1.19028
C   -14.76558   0.84952  -0.89042
O   -15.80216   1.43987  -1.21727
C   -14.79550  -0.45353  -0.02833
C   -16.26368  -0.85492   0.20523
C   -13.91182  -1.61042  -0.56437
C   -12.98353  -1.93758   0.36221
C   -11.94491  -3.05463   0.42674
F   -10.98628  -2.61653   1.39494
O   -11.27381  -3.14388  -0.76868
C   -10.26201  -4.14069  -0.89234
C   -12.46723  -4.36987   1.02475
C   -13.38009  -5.25953   0.17504
C   -14.50288  -4.56037  -0.59659
C   -13.98217  -3.83671  -1.85572
C   -14.12564  -2.27686  -1.94264
C   -13.06261  -1.81730  -2.97530
C   -11.95971  -1.01457  -2.66586
C   -11.03187  -0.65301  -3.64993
C   -11.17967  -1.09950  -4.96418
C   -12.26872  -1.91753  -5.28423
C   -13.19644  -2.26648  -4.30189
C   -15.51590  -1.93126  -2.52620
C   -15.70378  -0.75821  -3.27176
C   -16.95434  -0.41961  -3.79208
C   -18.05053  -1.26187  -3.59129
C   -17.87518  -2.44753  -2.87219
C   -16.62222  -2.77710  -2.34945
C   -13.01192  -0.97631   1.55229
C   -13.29487  -1.71599   2.89775
C   -14.65869  -2.33613   3.03601
O   -12.50582  -1.74888   3.82866
C   -11.72195  -0.09247   1.50108
O   -11.41140   0.44210   0.42129
N   -11.04109   0.13705   2.62101
C    -9.84024   0.94945   2.62775
N   -14.17017  -0.17343   1.26738
C   -14.37900   1.07477   1.95553
H   -12.29838   2.54407  -2.30621
H   -13.99373   2.48726  -2.86965
H   -13.57450   3.42399  -1.41356
H   -12.73615   0.89120  -0.71550
H   -16.31984  -1.88471   0.57957
H   -16.69182  -0.18667   0.96649
H   -16.87782  -0.76953  -0.69373
H    -9.54868  -4.08855  -0.05608
H    -9.73394  -3.91938  -1.82905
H   -10.68840  -5.15353  -0.95412
H   -11.58281  -4.94603   1.33600
H   -12.98607  -4.10189   1.95432
H   -13.81519  -6.00369   0.86139
H   -12.77346  -5.83233  -0.54554
H   -15.04973  -3.87550   0.06958
H   -15.23121  -5.32791  -0.90089
H   -14.47453  -4.24420  -2.74791
H   -12.92158  -4.07157  -1.97664
H   -11.79692  -0.67689  -1.64751
H   -10.18427  -0.01935  -3.37659
H   -10.45495  -0.81691  -5.73156
H   -12.40095  -2.28289  -6.30575
H   -14.04816  -2.89051  -4.57785
H   -14.85902  -0.09442  -3.45107
H   -17.06908   0.50870  -4.35674
H   -19.03029  -1.00207  -3.99933
H   -18.71910  -3.12309  -2.71261
H   -16.52705  -3.70028  -1.78105
H   -15.36459  -1.55372   3.35778
H   -14.61976  -3.11279   3.81135
H   -15.03105  -2.74763   2.09090
H   -11.28310  -0.44666   3.42255
H   -10.03246   1.92925   2.16682
H    -9.02211   0.46569   2.06821
H    -9.51818   1.10029   3.66547
H   -14.22215   0.94629   3.03847
H   -15.41670   1.40995   1.81213
H   -13.71258   1.89130   1.61197
