33
Generated by autodE on: 2022-10-25. E = -781.612801 Ha
C    -2.06575   1.80464  -1.15447
N    -2.78122   0.85841  -0.31596
C    -2.27082  -0.08609   0.53248
O    -3.00922  -0.54970   1.42739
C    -0.88010  -0.49842   0.35304
C    -0.05198  -1.03596   1.38614
C    -0.62151  -1.25511   2.77410
O     1.14801  -1.34350   1.18836
N    -0.33480  -0.51497  -0.96061
C    -1.12270  -1.20526  -1.99916
C     0.90198  -0.17470  -1.22927
C     1.52826  -0.55358  -2.53002
C     1.64462   0.75647  -0.29476
O     1.06950   1.70243   0.25026
N     2.97011   0.55778  -0.20110
C     3.77068   1.32647   0.73271
H    -1.06826   2.01105  -0.74615
H    -1.95431   1.46035  -2.19698
H    -2.62767   2.74918  -1.17690
H    -3.76991   1.03336  -0.16278
H    -1.35598  -2.07330   2.77472
H     0.20985  -1.50844   3.44605
H    -1.14250  -0.36087   3.14401
H    -2.16569  -1.25618  -1.67786
H    -1.05363  -0.67138  -2.95409
H    -0.73813  -2.22810  -2.12285
H     1.38180  -1.62148  -2.75043
H     2.59956  -0.32793  -2.53793
H     1.06290   0.01845  -3.35146
H     3.34523  -0.32348  -0.53848
H     3.50928   1.08568   1.77720
H     4.83034   1.09629   0.56784
H     3.60927   2.40221   0.57769
