33
Generated by autodE on: 2022-10-26. E = -781.626197 Ha
C     3.90079  -1.80553   1.74579
N     2.55410  -1.29079   1.82349
C     1.97059  -0.66279   0.77656
O     2.59482  -0.44686  -0.28865
C     0.57534  -0.25645   0.95033
C    -0.21930  -0.48238   2.10198
C    -1.63010   0.07313   2.18790
O     0.20611  -1.11253   3.11213
N     0.03034   0.45920  -0.16435
C     0.56587   1.81183  -0.39815
C    -0.95594  -0.00866  -0.87229
C    -1.46151  -1.39627  -0.76038
C    -1.72374   0.94924  -1.76039
O    -2.38138   1.84216  -1.21985
N    -1.66946   0.72597  -3.07509
C    -2.40650   1.54961  -4.01862
H     4.01102  -2.56873   0.95551
H     4.16315  -2.26546   2.70750
H     4.63136  -1.00732   1.53328
H     1.94043  -1.46631   2.62385
H    -1.75600   0.51378   3.18814
H    -2.35104  -0.75754   2.10867
H    -1.88499   0.82506   1.43074
H     0.03876   2.51940   0.25623
H     0.44760   2.10258  -1.44850
H     1.62980   1.79533  -0.14530
H    -1.70669  -1.77391  -1.76460
H    -2.40118  -1.40264  -0.18210
H    -0.73383  -2.04675  -0.25837
H    -1.11852  -0.05666  -3.41784
H    -2.12474   1.25710  -5.03658
H    -3.49289   1.41796  -3.89462
H    -2.16899   2.61352  -3.87089
