44
Generated by autodE on: 2022-10-25. E = -988.332701 Ha
C    -1.49149   1.85343   3.79910
O    -2.39422   1.85725   2.69545
C    -1.85804   2.22668   1.47184
F    -1.54099   3.59421   1.52994
C    -0.66438   1.45189   1.09781
C    -0.10990   0.53925   0.52331
C     0.14434  -0.59941  -0.36219
C     0.88191  -0.09811  -1.61805
C     0.46988  -0.41550  -2.91772
C     1.20554   0.02674  -4.02430
C     2.36007   0.79101  -3.84627
C     2.77852   1.11272  -2.54975
C     2.04414   0.67157  -1.44887
C     0.97032  -1.71112   0.29994
C     1.37747  -2.81492  -0.46513
C     2.09537  -3.85973   0.11960
C     2.42361  -3.81462   1.47945
C     2.02566  -2.71697   2.24615
C     1.30233  -1.67262   1.65950
C    -1.29838  -1.14380  -0.64769
C    -2.35913  -0.11170  -1.08857
C    -3.22501   0.56572   0.01095
C    -2.91966   2.02795   0.38754
H    -1.03299   2.84456   3.94167
H    -2.08113   1.59438   4.68796
H    -0.69651   1.10137   3.65935
H    -0.42578  -1.01335  -3.08491
H     0.86793  -0.23050  -5.03118
H     2.93176   1.13566  -4.71114
H     3.68077   1.70958  -2.39597
H     2.37794   0.92234  -0.43883
H     1.13667  -2.85419  -1.52950
H     2.40399  -4.71189  -0.49083
H     2.98922  -4.62998   1.93653
H     2.27863  -2.66812   3.30808
H     0.99420  -0.81921   2.26708
H    -1.20605  -1.93634  -1.40423
H    -1.63703  -1.64202   0.27357
H    -1.89381   0.66060  -1.72237
H    -3.05037  -0.65384  -1.75216
H    -3.22594  -0.04999   0.92590
H    -4.26577   0.55909  -0.34666
H    -2.58735   2.59098  -0.49785
H    -3.82999   2.51698   0.76936
