77
Generated by autodE on: 2022-10-25. E = -1769.929501 Ha. Imaginary frequency = -312.8 cm-1
C   -14.92022   1.98332  -3.14003
N   -14.48427   1.13725  -2.04908
C   -15.23522   0.92808  -0.96196
O   -16.33445   1.46804  -0.79122
C   -14.70026  -0.03410   0.09607
C   -15.81941  -0.75907   0.78836
C   -13.83840  -2.10061  -0.69481
C   -13.30052  -2.43525   0.38509
C   -12.77881  -3.58765   1.16512
F   -13.75665  -3.91540   2.13583
O   -11.62069  -3.21910   1.82183
C   -11.03484  -4.14962   2.72295
C   -12.59157  -4.82149   0.27884
C   -11.75638  -4.50139  -0.97464
C   -12.53231  -4.57045  -2.30179
C   -13.96164  -4.02562  -2.32908
C   -14.19563  -2.48998  -2.10136
C   -13.30123  -1.74778  -3.10417
C   -12.19417  -0.99712  -2.68400
C   -11.36927  -0.34994  -3.61224
C   -11.62546  -0.45997  -4.97980
C   -12.70569  -1.23837  -5.41158
C   -13.52919  -1.87893  -4.48435
C   -15.70781  -2.22834  -2.30369
C   -16.21552  -1.22618  -3.13928
C   -17.59113  -0.98874  -3.23041
C   -18.49301  -1.76498  -2.50073
C   -18.00229  -2.77984  -1.67308
C   -16.62797  -3.00153  -1.57368
C   -12.94366  -0.56466   1.64051
C   -13.53397  -0.72300   2.97991
C   -14.69271   0.14933   3.41713
O   -13.02677  -1.46764   3.83268
C   -11.43319  -0.58149   1.51408
O   -10.88660  -0.49366   0.40445
N   -10.70349  -0.64402   2.64862
C    -9.28650  -0.93580   2.57024
N   -13.55165   0.31155   0.72200
C   -12.81107   1.52666   0.31146
H   -14.87481   3.05012  -2.86552
H   -14.26032   1.80917  -3.99926
H   -15.95676   1.74903  -3.42634
H   -13.63748   0.59019  -2.17483
H   -16.48694  -1.20209   0.04470
H   -16.41037  -0.02588   1.35816
H   -15.46990  -1.54185   1.46480
H   -11.79993  -4.64639   3.33727
H   -10.37434  -3.57001   3.38136
H   -10.43444  -4.90842   2.19507
H   -12.11961  -5.60248   0.89161
H   -13.59021  -5.19660   0.02028
H   -10.90989  -5.20210  -1.04197
H   -11.30222  -3.50529  -0.85765
H   -11.93133  -4.08797  -3.08933
H   -12.61596  -5.63105  -2.59527
H   -14.39041  -4.25690  -3.31663
H   -14.57385  -4.57542  -1.60368
H   -11.96806  -0.90848  -1.62108
H   -10.52089   0.23901  -3.25526
H   -10.98531   0.04610  -5.70615
H   -12.91038  -1.34669  -6.47947
H   -14.36453  -2.48289  -4.84241
H   -15.54022  -0.60887  -3.72548
H   -17.95378  -0.19032  -3.88231
H   -19.56752  -1.58152  -2.57405
H   -18.69121  -3.39418  -1.08840
H   -16.26726  -3.76926  -0.88784
H   -14.38545   0.62208   4.36282
H   -15.57201  -0.47407   3.63896
H   -14.96672   0.93019   2.70225
H   -11.21097  -0.97669   3.46656
H    -9.09289  -1.87754   2.02814
H    -8.88349  -1.02262   3.58717
H    -8.74771  -0.13213   2.04694
H   -12.13088   1.80007   1.12415
H   -13.52445   2.34923   0.18616
H   -12.23315   1.38682  -0.60721
