29
Generated by autodE on: 2022-05-26. E = -634.411627 Ha
C    -1.27893  -2.82594  -0.54643
C    -1.06668  -1.33608  -0.49958
N     0.03489  -0.83868  -0.93283
C     1.00756  -0.26777  -1.43012
C     2.20763   0.10697  -0.66571
C     3.36614   0.49605  -1.36046
C     4.51660   0.86986  -0.66301
C     4.51197   0.88061   0.73550
C     3.35800   0.50922   1.43862
C     2.21463   0.11800   0.74485
C    -2.10599  -0.42791   0.01724
C    -1.88993   0.96569   0.08357
C    -2.88106   1.81853   0.56489
C    -4.10984   1.30468   0.99859
C    -4.33399  -0.07398   0.94265
C    -3.34582  -0.93382   0.45798
H    -2.14635  -3.08074  -1.17791
H    -0.39123  -3.32673  -0.95440
H    -1.47786  -3.23023   0.45938
H     3.35053   0.49775  -2.45262
H     5.41592   1.16197  -1.20996
H     5.40860   1.18296   1.28190
H     3.35574   0.52277   2.53117
H     1.31287  -0.17643   1.28756
H    -0.93321   1.37934  -0.24138
H    -2.69247   2.89410   0.60683
H    -4.88398   1.97470   1.37953
H    -5.28814  -0.48746   1.27844
H    -3.54459  -2.00549   0.42022
