43
Generated by autodE on: 2022-05-26. E = -959.244401 Ha. Imaginary frequency = -308.2 cm-1
C     2.77452   2.72651  -0.23892
N     1.49146   2.23074   0.21955
C     1.36757   1.54456   1.38347
O     2.28186   1.48063   2.22021
C     0.08872   0.87987   1.57097
C    -1.06930   0.66601   1.96041
C    -2.34150   0.83419   2.66252
C    -1.61591  -1.40556   0.62807
C    -2.06680  -2.39965   1.66133
C    -2.57384  -0.72504  -0.25469
C    -2.13850   0.11300  -1.30687
C    -3.05475   0.80924  -2.09105
C    -4.43115   0.68611  -1.85744
C    -4.87608  -0.14823  -0.82872
C    -3.96227  -0.84887  -0.03731
N    -0.35356  -1.46444   0.22744
C     0.71364  -0.88446   0.20352
C     1.97683  -0.91221  -0.48482
C     2.02271  -0.72662  -1.88314
C     3.25380  -0.63264  -2.52950
C     4.44511  -0.73957  -1.80122
C     4.40169  -0.92725  -0.41514
C     3.17733  -0.99140   0.24894
H     3.40727   1.92008  -0.64844
H     3.31423   3.19643   0.59376
H     2.61445   3.47842  -1.02296
H     0.76686   2.08061  -0.47592
H    -2.38800   1.80875   3.17735
H    -2.47808   0.04719   3.42219
H    -3.19675   0.77048   1.97121
H    -2.81744  -1.95476   2.32978
H    -1.21301  -2.72759   2.27021
H    -2.52887  -3.29054   1.19983
H    -1.07153   0.22146  -1.50896
H    -2.69263   1.45360  -2.89603
H    -5.14729   1.23200  -2.47580
H    -5.94634  -0.25965  -0.63784
H    -4.33481  -1.49435   0.75854
H     1.09032  -0.64927  -2.44565
H     3.28478  -0.48307  -3.61119
H     5.40700  -0.67167  -2.31424
H     5.32971  -1.00652   0.15547
H     3.13681  -1.09756   1.33368
