60
Generated by autodE on: 2022-06-14. E = -1236.782839 Ha
C    -0.96437   7.76898 -12.21741
C    -0.74526   7.21735 -11.16094
C    -0.85273   6.89360  -9.73268
C    -1.76519   5.66291  -9.57408
C    -1.48572   4.51924 -10.34019
C    -2.25558   3.36301 -10.21282
C    -3.32726   3.32956  -9.31255
C    -3.61300   4.46052  -8.54596
C    -2.83700   5.61958  -8.67449
C     0.50235   6.60893  -9.06955
C     1.70938   6.85346  -9.73620
C     2.93476   6.62911  -9.09925
C     2.96830   6.15921  -7.78404
C     1.76635   5.91346  -7.11048
C     0.54451   6.13475  -7.74925
C    -1.44438   8.20461  -9.11243
C    -2.68569   8.80580  -9.80624
C    -2.46253   9.83576 -10.95068
C    -2.70768   9.37627 -12.40402
C    -1.48462   8.76200 -13.16577
C    -1.98654   8.14526 -14.47898
C    -2.10678   6.75922 -14.63851
C    -2.60784   6.21842 -15.82768
C    -2.99807   7.05889 -16.87315
C    -2.88192   8.44534 -16.72116
C    -2.37816   8.98272 -15.53493
C    -0.37060   9.77951 -13.47527
C    -0.57093  11.16451 -13.43217
C     0.46787  12.04522 -13.75951
C     1.71938  11.55420 -14.13524
C     1.92804  10.17069 -14.18323
C     0.89212   9.29585 -13.85527
H    -0.64933   4.53851 -11.04333
H    -2.01946   2.48455 -10.81833
H    -3.93452   2.42693  -9.21186
H    -4.44701   4.44811  -7.83999
H    -3.07989   6.48700  -8.06110
H     1.69074   7.22365 -10.76333
H     3.86632   6.82260  -9.63692
H     3.92458   5.98198  -7.28614
H     1.78012   5.54322  -6.08245
H    -0.38710   5.92953  -7.21779
H    -0.63330   8.94928  -9.11605
H    -1.66507   8.00509  -8.05342
H    -3.25306   9.32100  -9.01520
H    -3.34732   7.99793 -10.15893
H    -1.45665  10.27743 -10.86094
H    -3.16176  10.66850 -10.77546
H    -3.50107   8.61278 -12.41246
H    -3.09023  10.21475 -13.00447
H    -1.80675   6.09652 -13.82414
H    -2.69136   5.13406 -15.93492
H    -3.38811   6.63769 -17.80277
H    -3.18149   9.11251 -17.53314
H    -2.28179  10.06544 -15.43091
H    -1.53878  11.57475 -13.14465
H     0.29156  13.12282 -13.71728
H     2.52892  12.24276 -14.38855
H     2.90230   9.77222 -14.47670
H     1.06058   8.21682 -13.89576
