14
Generated by autodE on: 2022-06-14. E = -324.801409 Ha
C     2.99034   0.64594   0.59311
C     2.12581  -0.43208   0.02367
N     0.91718  -0.23928  -0.33069
C    -0.21344  -0.00482  -0.73968
C    -1.50967  -0.09719  -0.09932
C    -2.05427   1.19842   0.44839
O    -2.15974  -1.14357  -0.12242
H     2.46097   1.60864   0.62253
H     3.30883   0.38333   1.61649
H     3.90719   0.75779  -0.01033
H     2.52403  -1.44648  -0.10108
H    -2.61084   1.71991  -0.34861
H    -1.25320   1.86707   0.79722
H    -2.75303   0.97394   1.26732
