74
Generated by autodE on: 2022-06-14. E = -1561.587375 Ha. Imaginary frequency = -308.8 cm-1
C     5.69036  17.14519  13.44017
C     6.36978  16.13809  14.32662
O     7.27056  16.42318  15.11132
C     5.85337  14.77261  14.23949
N     6.00096  13.91318  13.38015
C     5.80978  12.67852  13.02139
C     4.89360  12.32868  11.89407
C     4.65402  12.33101  15.27717
C     4.68413  13.46337  15.77623
C     4.34853  14.42654  16.85911
C     5.56755  14.66486  17.76536
C     6.84276  14.19093  17.42937
C     7.93622  14.39095  18.27903
C     7.77372  15.06666  19.48968
C     6.50481  15.53846  19.84276
C     5.41695  15.33683  18.99124
C     3.78084  15.72987  16.25658
C     2.73129  15.63084  15.32508
C     2.13974  16.76930  14.77762
C     2.59009  18.04295  15.14591
C     3.64500  18.15441  16.05156
C     4.23564  17.00864  16.59991
C     3.19533  13.78067  17.70242
C     3.50299  12.45791  18.42055
C     3.15097  11.14192  17.69757
C     4.23683  10.46983  16.84635
C     4.32997  10.87981  15.33704
C     5.48459  10.06857  14.70653
C     5.32400   9.21619  13.60789
C     6.42130   8.55027  13.04616
C     7.70023   8.72110  13.57682
C     7.87453   9.56992  14.67675
C     6.78003  10.23395  15.23013
C     2.97681  10.60300  14.66281
C     2.27406  11.60169  13.97679
C     1.02845  11.34011  13.39508
C     0.45878  10.06929  13.49292
C     1.14744   9.06316  14.17978
C     2.38970   9.32928  14.75854
H     5.94640  18.16218  13.76523
H     4.60073  17.00376  13.44192
H     6.04354  16.98684  12.40645
H     6.59781  11.97297  13.30034
H     4.08205  13.06331  11.79560
H     4.46122  11.33356  12.06341
H     5.44685  12.28601  10.93844
H     6.98563  13.65349  16.49219
H     8.91921  14.01149  17.98915
H     8.62553  15.22138  20.15624
H     6.35875  16.06480  20.78925
H     4.43684  15.71205  19.28930
H     2.37714  14.64457  15.01811
H     1.32548  16.66179  14.05674
H     2.13027  18.93692  14.71819
H     4.02322  19.13967  16.33501
H     5.07035  17.12644  17.28899
H     2.33131  13.63921  17.03639
H     2.88501  14.53090  18.44446
H     2.91685  12.47227  19.35342
H     4.55805  12.43395  18.74106
H     2.88739  10.41261  18.48053
H     2.23044  11.27808  17.10527
H     4.08623   9.37990  16.86991
H     5.21706  10.65004  17.31109
H     4.33913   9.07301  13.16510
H     6.26774   7.89693  12.18367
H     8.55585   8.20291  13.13739
H     8.87025   9.72190  15.10066
H     6.94039  10.91828  16.06586
H     2.70417  12.59975  13.89950
H     0.50307  12.13894  12.86581
H    -0.51458   9.86267  13.04157
H     0.71413   8.06380  14.26772
H     2.91000   8.52908  15.28746
