23
Generated by autodE on: 2022-06-21. E = -351.521381 Ha
C     3.38473   1.66273   0.27897
C     2.49133   0.64956   0.24531
C     2.92649  -0.78446   0.40789
C     1.07129   0.93503   0.04994
C     0.07812   0.01189   0.00230
C    -1.31712   0.35031  -0.19149
C    -2.36720  -0.50786  -0.24182
C    -2.25335  -1.99918  -0.09890
C    -3.76582   0.00052  -0.45012
H     4.45265   1.47786   0.42484
H     3.06559   2.70286   0.16079
H     4.01433  -0.85712   0.54713
H     2.64889  -1.38632  -0.47342
H     2.43399  -1.25323   1.27605
H     0.80698   1.99321  -0.06476
H     0.33373  -1.04500   0.11642
H    -1.53272   1.41941  -0.30758
H    -2.86598  -2.34862   0.75098
H    -1.22527  -2.35208   0.05348
H    -2.65999  -2.50092  -0.99476
H    -4.21493  -0.44807  -1.35450
H    -3.79970   1.09524  -0.55115
H    -4.41847  -0.29314   0.39171
