24
Generated by autodE on: 2022-07-27. E = -758.647633 Ha
C     1.48625   1.33007   2.80671
N     0.53694   1.38417   1.71194
C     0.74348   0.70017   0.58306
O     1.71450  -0.02859   0.36297
C    -0.26242   0.91820  -0.51309
O    -0.44895   0.07050  -1.46225
N    -0.10093  -1.22883  -1.53565
C    -0.16554  -1.88285  -0.32383
O    -0.70724  -1.49026   0.70240
O     0.35778  -3.10485  -0.47454
C     0.25388  -3.98243   0.65391
C    -0.94067   2.23128  -0.78808
C    -1.58027   2.41421  -2.12874
O    -0.97906   3.07204   0.09763
H     1.78813   0.28902   2.98730
H     2.39295   1.91763   2.58605
H     1.01190   1.73291   3.70948
H    -0.18555   2.10346   1.69484
H    -0.80035  -4.20086   0.87950
H     0.77579  -4.90300   0.36771
H     0.73181  -3.53348   1.53681
H    -1.96234   3.43955  -2.20322
H    -2.40904   1.69765  -2.24636
H    -0.85830   2.21078  -2.93447
