24
Generated by autodE on: 2022-06-21. E = -758.655198 Ha
C    -2.33048   2.76409  -0.96528
N    -1.43635   1.72332  -0.50068
C    -1.89140   0.73409   0.28316
O    -3.06050   0.62844   0.66034
C    -0.87954  -0.29648   0.70893
O     0.28339  -0.45739   0.20439
N     0.83927   0.31249  -0.74664
C     2.11115  -0.20076  -0.97462
O     2.63693  -1.15618  -0.43171
O     2.68625   0.55450  -1.91817
C     4.02116   0.19158  -2.29142
C    -1.14593  -1.28928   1.81701
C    -0.31087  -2.53467   1.81582
O    -1.99199  -1.03941   2.65279
H    -3.10693   2.35367  -1.63158
H    -1.74734   3.51350  -1.51281
H    -2.83750   3.24702  -0.11606
H    -0.47460   1.65578  -0.84490
H     4.69530   0.25301  -1.42443
H     4.04446  -0.82929  -2.70025
H     4.32604   0.91264  -3.05866
H    -0.54959  -3.12770   0.91681
H    -0.53329  -3.11684   2.71828
H     0.76098  -2.29382   1.76222
