40
Generated by autodE on: 2022-10-06. E = -1201.172710 Ha
C     4.24882   1.23614   0.20010
O     3.28066   0.26063   0.59760
C     2.01343   0.49690   0.23514
O     1.67094   1.54774  -0.27169
C     1.02824  -0.61978   0.64058
C     1.72923  -1.72270   1.44089
C     0.32851  -1.22293  -0.59872
C     1.20470  -1.54790  -1.82092
O     2.37537  -1.08090  -1.85660
O     0.68684  -2.30842  -2.67838
C    -0.90211  -0.32853  -0.83518
C    -0.70438   0.90406  -1.74226
O    -1.23710   1.98366  -1.36006
O    -0.10675   0.73881  -2.83069
C    -1.32862   0.02072   0.60491
C    -2.16725   1.31741   0.67573
C    -3.54181   1.22061   0.05055
O    -1.87973   2.25094   1.41290
C    -2.23403  -1.11423   1.18845
C    -2.56163  -1.04863   2.65912
O    -2.62439  -2.04219   0.50071
N    -0.08502  -0.02045   1.37486
C     0.20697   0.75002   2.56065
H     4.01126   2.22194   0.62576
H     4.28009   1.31156  -0.89720
H     5.21416   0.88250   0.58155
H     0.98413  -2.47386   1.74007
H     2.22227  -1.33620   2.34349
H     2.49468  -2.21199   0.82263
H    -0.06802  -2.19504  -0.26980
H    -1.68417  -0.92847  -1.32053
H    -3.88582   2.22599  -0.22579
H    -3.57474   0.55704  -0.82218
H    -4.23573   0.82275   0.81211
H    -2.85988  -0.03447   2.96139
H    -3.36493  -1.76220   2.88463
H    -1.67196  -1.31690   3.24871
H     0.65903   1.73881   2.34875
H     0.91211   0.19111   3.19832
H    -0.69607   0.92542   3.15354
