30
Generated by autodE on: 2022-10-06. E = -746.085045 Ha
C     2.82543   0.33918  -1.65177
O     1.99732  -0.38710  -0.72154
C     1.63351   0.25387   0.37623
O     1.99333   1.35877   0.71118
C     0.76267  -0.60603   1.26582
C     1.33251  -1.11416   2.53724
N    -0.45758  -0.81240   0.89030
C    -1.38825  -1.58396   1.72409
C    -1.00401  -0.02243  -0.19579
C    -1.27382   1.33659   0.18243
C    -1.90696   2.26720  -0.82857
O    -0.99887   1.76780   1.32206
C    -1.25810  -0.67346  -1.44509
C    -0.85213  -2.13391  -1.56353
O    -1.75381  -0.09963  -2.43536
H     3.03133  -0.35689  -2.47165
H     2.28255   1.22059  -2.02087
H     3.75912   0.65073  -1.16374
H     1.31241  -2.21670   2.54173
H     0.71598  -0.76988   3.38396
H     2.36451  -0.76978   2.66968
H    -1.70407  -0.95012   2.56725
H    -0.91156  -2.49590   2.10371
H    -2.26351  -1.83756   1.11815
H    -2.86775   1.87321  -1.19004
H    -2.05633   3.24560  -0.35140
H    -1.26275   2.37884  -1.71349
H    -1.12958  -2.50008  -2.56073
H     0.23497  -2.24315  -1.42576
H    -1.34252  -2.75991  -0.80152
