30
Generated by autodE on: 2022-10-13. E = -746.084330 Ha
C     4.50013  -0.15450  -0.69543
O     3.08071  -0.32569  -0.89461
C     2.31171  -0.22629   0.17216
O     2.67970  -0.01083   1.30522
C     0.85821  -0.48452  -0.15423
C     0.50631  -1.84868  -0.60681
N    -0.00435   0.46146   0.05519
C     0.41618   1.83042   0.40403
C    -1.42427   0.21486   0.04496
C    -2.11312   0.84076  -1.04899
C    -3.61517   0.71658  -1.16113
O    -1.48494   1.48390  -1.91705
C    -1.99084  -0.57089   1.10184
C    -1.09646  -1.07244   2.22661
O    -3.20530  -0.85356   1.15969
H     4.70268   0.84239  -0.28040
H     4.95340  -0.25950  -1.68667
H     4.87663  -0.92865  -0.01278
H     0.59611  -2.55129   0.23938
H     1.23649  -2.16632  -1.36600
H    -0.51781  -1.88773  -0.99810
H     0.47379   1.91415   1.49812
H    -0.34154   2.51946   0.02118
H     1.38505   2.07061  -0.05026
H    -4.11669   1.08918  -0.25596
H    -3.91665  -0.33559  -1.27100
H    -3.94379   1.29128  -2.03843
H    -1.66812  -1.00662   3.16349
H    -0.14600  -0.53606   2.34385
H    -0.87072  -2.13868   2.05838
