60
Generated by autodE on: 2022-06-26. E = -1273.190108 Ha
C    -0.16132  -1.70872   2.73360
C     0.30981  -0.47824   2.49477
C     1.07516   0.28741   3.54108
C     0.21924   0.26373   1.17203
C     1.49275  -0.02939   0.32862
C     1.98758   1.16218  -0.44826
C     3.27551   1.44558  -0.71725
C     4.44076   0.59077  -0.29912
C     3.64336   2.67832  -1.49828
C     1.00936  -1.22608  -0.54168
C     1.71790  -1.20975  -1.92036
C     0.96004  -0.68135  -3.09592
O     2.85879  -1.62670  -2.00262
C     1.36885  -2.59489   0.08403
C     0.44262  -3.73341  -0.22844
O     2.39751  -2.73337   0.71772
O    -0.39500  -1.09672  -0.67488
C    -0.93448  -0.06883   0.18408
C    -2.22906  -0.56971   0.81830
C    -2.88841  -1.70117   0.32598
C    -4.09967  -2.11647   0.89121
C    -4.66640  -1.40158   1.94872
C    -4.01552  -0.26162   2.43574
C    -2.80844   0.15232   1.87195
C    -1.35109   1.13417  -0.68726
C    -1.37203   2.44957  -0.20352
C    -1.81972   3.50087  -1.01026
C    -2.26626   3.25263  -2.31042
C    -2.27581   1.93938  -2.79115
C    -1.82942   0.89156  -1.98351
H     0.00727  -2.18821   3.70254
H    -0.73393  -2.27404   2.00005
H     1.22562  -0.30472   4.45509
H     2.06284   0.59987   3.16043
H     0.53718   1.21413   3.80714
H     0.20227   1.33189   1.40994
H     2.29491  -0.40088   0.97367
H     1.22395   1.84876  -0.82341
H     5.11044   1.15483   0.37370
H     4.14677  -0.34209   0.19713
H     5.04370   0.32228  -1.18340
H     4.17186   2.40639  -2.42901
H     2.76024   3.27845  -1.76290
H     4.33905   3.31409  -0.92261
H     1.61677  -0.67059  -3.97507
H     0.58168   0.32854  -2.88454
H     0.08141  -1.31715  -3.28517
H     0.85385  -4.66870   0.17179
H    -0.55522  -3.54721   0.19275
H     0.31380  -3.81130  -1.32075
H    -2.44923  -2.26492  -0.49634
H    -4.60008  -3.00563   0.49985
H    -5.61082  -1.72718   2.39113
H    -4.44942   0.30618   3.26237
H    -2.30776   1.04138   2.26057
H    -1.03937   2.67341   0.81053
H    -1.81664   4.51969  -0.61559
H    -2.61170   4.07461  -2.94176
H    -2.63490   1.72727  -3.80117
H    -1.85105  -0.12957  -2.36188
