23
Generated by autodE on: 2022-06-26. E = -351.521383 Ha
C     3.31980  -1.12465  -1.41904
C     2.41935  -0.28009  -0.86974
C     2.77971   1.14729  -0.54583
C     1.06531  -0.74623  -0.57739
C     0.07416  -0.00124  -0.02657
C    -1.25309  -0.51435   0.24504
C    -2.29451   0.16188   0.79259
C    -2.24226   1.60145   1.21941
C    -3.61771  -0.51425   1.01579
H     3.05480  -2.16045  -1.65271
H     4.33963  -0.80288  -1.64770
H     2.12777   1.85409  -1.08565
H     3.82292   1.36566  -0.81438
H     2.64767   1.35637   0.52881
H     0.85334  -1.79175  -0.83185
H     0.27838   1.04170   0.23022
H    -1.41869  -1.56439  -0.02496
H    -1.27107   2.08092   1.04132
H    -2.47696   1.68954   2.29502
H    -3.01593   2.18476   0.68953
H    -3.60830  -1.56466   0.68982
H    -4.42324   0.01294   0.47356
H    -3.89825  -0.48224   2.08404
