37
Generated by autodE on: 2022-06-26. E = -921.615227 Ha
C    -1.57037   0.59560  -2.13112
C    -2.41469   0.45708  -0.87411
O    -3.51570   1.04351  -0.84012
C    -1.96206  -0.37188   0.19981
O    -0.67582  -0.96604   0.12373
C     0.44364  -0.33221  -0.02350
C     0.56907   1.10902   0.18463
C     1.36614   1.87859  -0.68510
C     1.50769   3.24933  -0.47228
C     0.87827   3.85489   0.61817
C     0.09832   3.09048   1.49739
C    -0.07410   1.72883   1.27726
C     1.56649  -1.17589  -0.38126
C     1.32566  -2.43721  -0.97511
C     2.39124  -3.26678  -1.30155
C     3.70497  -2.85818  -1.03415
C     3.95356  -1.61628  -0.43820
C     2.89509  -0.77338  -0.11440
C    -2.71270  -0.81351   1.33692
C    -2.00007  -1.74994   2.29849
O    -3.88345  -0.45973   1.57280
H    -2.26184   0.60960  -2.98629
H    -1.04160   1.56202  -2.11957
H    -0.83089  -0.20200  -2.28403
H     1.84472   1.40579  -1.54319
H     2.11166   3.84447  -1.15984
H     0.99445   4.92763   0.78803
H    -0.37962   3.56328   2.35751
H    -0.67877   1.13772   1.96400
H     0.30145  -2.73776  -1.19667
H     2.20383  -4.23313  -1.77358
H     4.54026  -3.51312  -1.29210
H     4.97772  -1.30856  -0.21939
H     3.09012   0.17956   0.37681
H    -1.60780  -2.63918   1.78037
H    -1.13806  -1.24464   2.76508
H    -2.70596  -2.05898   3.08081
