60
Generated by autodE on: 2022-06-26. E = -1273.118088 Ha. Imaginary frequency = -278.0 cm-1
C     0.77264  -1.94061   2.43063
C     0.20612  -0.72397   2.31715
C    -0.71266  -0.18848   3.38420
C     0.46685   0.19225   1.18832
C     1.65465   0.12681   0.44943
C     2.14701   1.23723  -0.32368
C     3.43920   1.43953  -0.69712
C     4.58461   0.54728  -0.31801
C     3.81133   2.64121  -1.51245
C     0.78410  -1.54811  -1.28672
C     1.36232  -0.73948  -2.34724
C     2.75694  -1.06479  -2.83424
O     0.75640   0.19810  -2.87874
C     1.31217  -2.86549  -0.92698
C     0.34094  -3.95239  -0.51559
O     2.52339  -3.11619  -0.95008
O    -0.51188  -1.39791  -0.85876
C    -1.15776  -0.34902  -0.33944
C    -2.27666  -0.74753   0.54193
C    -2.35310  -2.05219   1.06897
C    -3.38148  -2.40770   1.93997
C    -4.35587  -1.47283   2.30421
C    -4.30000  -0.17830   1.77689
C    -3.27565   0.18131   0.90299
C    -1.41776   0.85583  -1.19747
C    -1.25538   2.18470  -0.79301
C    -1.64068   3.23528  -1.63366
C    -2.21567   2.96983  -2.87722
C    -2.41326   1.64208  -3.27498
C    -2.02149   0.59683  -2.44252
H     1.47550  -2.33272   1.69420
H     0.55477  -2.57856   3.29124
H    -0.92577  -0.94397   4.15351
H    -1.66513   0.15823   2.95807
H    -0.25251   0.68697   3.87518
H     0.00606   1.17520   1.28342
H     2.34580  -0.68849   0.66087
H     1.41280   1.99260  -0.61392
H     5.23871   1.07439   0.39972
H     4.27613  -0.40174   0.13812
H     5.20924   0.32765  -1.19884
H     4.60026   3.22919  -1.01126
H     2.94938   3.29500  -1.70779
H     4.23552   2.32200  -2.48138
H     3.48010  -1.12760  -2.01660
H     2.76663  -2.04245  -3.34211
H     3.05006  -0.28177  -3.54599
H    -0.59898  -3.91656  -1.08109
H     0.83724  -4.92131  -0.66004
H     0.10005  -3.85454   0.55390
H    -1.60466  -2.78628   0.78999
H    -3.42158  -3.42428   2.33775
H    -5.15901  -1.75347   2.98944
H    -5.06073   0.55758   2.04656
H    -3.24801   1.19403   0.50359
H    -0.83068   2.42019   0.18103
H    -1.49165   4.26640  -1.30531
H    -2.51702   3.79131  -3.53131
H    -2.87393   1.42049  -4.24066
H    -2.17348  -0.43748  -2.75553
