43
Generated by autodE on: 2022-06-19. E = -917.593027 Ha
C    -0.33408  -2.11001  -1.84499
N    -0.69212  -1.37819  -0.64692
C    -1.33995  -1.99916   0.39204
C    -1.90387  -1.36259   1.44351
C    -1.82815   0.12877   1.57509
C    -1.59410   0.84094   0.22753
C    -2.89637   1.10511  -0.53019
N    -3.76367   0.08103  -0.56514
O    -3.09878   2.17910  -1.10791
N    -0.90073   2.10487   0.45784
N     0.45828   1.69555   0.60597
C     1.34543   2.81740   0.79640
C     0.78419   0.73947  -0.48694
C     1.20420   1.45106  -1.78115
C     1.82601  -0.25925   0.00682
C     2.85487  -0.73461  -0.81956
C     3.77415  -1.68202  -0.35428
C     3.68200  -2.17209   0.95007
C     2.66132  -1.70450   1.78525
C     1.74671  -0.75987   1.31709
C    -0.62845   0.05982  -0.73394
H     0.66850  -1.81951  -2.19514
H    -1.04872  -1.92644  -2.67035
H    -0.31807  -3.18786  -1.63280
H    -1.37912  -3.08864   0.30921
H    -2.37369  -1.95292   2.23157
H    -0.99451   0.42560   2.23281
H    -2.74023   0.53828   2.03848
H    -4.63683   0.18699  -1.07236
H    -3.57290  -0.78111  -0.05721
H    -1.00745   2.66511  -0.40016
H     2.37797   2.45149   0.89701
H     1.07407   3.34472   1.72392
H     1.31930   3.55618  -0.03160
H     2.19319   1.92196  -1.69114
H     1.23190   0.74984  -2.62719
H     0.46973   2.23236  -2.03166
H     2.94929  -0.37200  -1.84304
H     4.56702  -2.03504  -1.01846
H     4.39958  -2.91106   1.31490
H     2.57563  -2.07923   2.80841
H     0.95578  -0.39930   1.97249
H    -0.91696   0.32999  -1.76134
