23
Generated by autodE on: 2022-06-19. E = -459.841660 Ha
C    -1.26977   2.13323  -0.19753
C    -0.98170   0.67672  -0.01566
C     0.39894   0.17287  -0.07708
C     1.26878   0.64685  -1.08476
C     2.59340   0.21679  -1.15684
C     3.09379  -0.69514  -0.22042
C     2.25294  -1.16171   0.79470
C     0.92779  -0.72945   0.87191
N    -2.03619  -0.10379   0.25049
C    -1.92659  -1.57392   0.29078
N    -3.27903   0.29654   0.44365
H    -0.36946   2.68241  -0.49637
H    -1.64161   2.58907   0.74088
H    -2.05753   2.29639  -0.95701
H     0.89157   1.34898  -1.83133
H     3.23892   0.59203  -1.95491
H     4.13147  -1.03199  -0.27695
H     2.63488  -1.85832   1.54525
H     0.30331  -1.07647   1.69596
H    -1.05367  -1.92070  -0.26865
H    -2.84417  -1.96614  -0.16120
H    -1.86700  -1.91479   1.33239
H    -3.26203   1.31956   0.45799
