20
Generated by autodE on: 2022-06-19. E = -457.715318 Ha
C    -3.11487   0.53406  -0.33825
N    -1.78339  -0.04496  -0.40810
C    -1.56018  -1.16581  -1.21758
C    -0.34676  -1.71915  -1.37084
C     0.89205  -1.19170  -0.68979
C     0.55624   0.02919   0.15128
C     1.59331   0.74092   0.91491
N     2.85250   0.24534   0.81470
O     1.36150   1.74281   1.62215
C    -0.71685   0.50958   0.23257
H    -3.43035   0.93388  -1.31645
H    -3.85196  -0.21964  -0.01910
H    -3.11550   1.35340   0.39141
H    -2.44958  -1.55789  -1.71424
H    -0.25317  -2.59516  -2.01675
H     1.66827  -0.95142  -1.44515
H     1.35157  -1.98718  -0.06767
H     3.08050  -0.55914   0.24472
H     3.59905   0.70946   1.32028
H    -0.92860   1.38980   0.84169
