43
Generated by autodE on: 2022-06-19. E = -917.528021 Ha. Imaginary frequency = -407.1 cm-1
C    -0.01627  -2.60941  -0.88953
N    -0.70721  -1.63199  -0.07476
C    -1.09451  -1.90803   1.21881
C    -1.88140  -1.08471   1.94058
C    -2.52574   0.13762   1.34017
C    -1.97042   0.48806  -0.04242
C    -2.84647   1.21769  -0.99174
N    -3.98496   1.74978  -0.49067
O    -2.55064   1.38925  -2.19201
N    -0.86692   2.22506   0.35818
N     0.32295   1.66865   0.55554
C     0.63800   1.51564   1.97407
C     0.82234   0.82203  -0.44125
C     0.82526   1.42446  -1.83382
C     1.97857  -0.06395  -0.12380
C     3.08991  -0.13301  -0.99273
C     4.13651  -1.02850  -0.77019
C     4.10511  -1.89410   0.32745
C     3.01820  -1.83889   1.20326
C     1.97396  -0.93889   0.98447
C    -0.98017  -0.37274  -0.63376
H     0.84582  -2.15451  -1.39979
H    -0.68026  -3.04187  -1.66188
H     0.35414  -3.42621  -0.25582
H    -0.70134  -2.84059   1.63062
H    -2.13841  -1.36000   2.96536
H    -2.43495   1.00618   2.01550
H    -3.61507  -0.05024   1.26039
H    -4.56492   2.31152  -1.10470
H    -4.22323   1.70108   0.49109
H    -0.92175   2.49301  -0.62537
H     0.11628   0.65408   2.42006
H     0.30099   2.43002   2.47529
H     1.71789   1.40087   2.11832
H     1.57195   2.23346  -1.91695
H     1.07155   0.65497  -2.57629
H    -0.15194   1.82621  -2.12549
H     3.14649   0.52462  -1.85940
H     4.98283  -1.04869  -1.46131
H     4.91953  -2.60216   0.49816
H     2.97441  -2.50867   2.06573
H     1.14077  -0.94101   1.68017
H    -0.95710  -0.38455  -1.72373
