36
Generated by autodE on: 2022-05-29. E = -1197.625975 Ha
C    -4.90973   1.95161  -0.05074
O    -3.95818   0.88198   0.07373
C    -2.70195   1.14849  -0.27584
O    -2.32761   2.22820  -0.67665
C    -1.80814  -0.08745  -0.07847
C    -2.40856  -1.20309  -0.95620
C    -2.51192  -2.57522  -0.37621
O    -2.74089  -0.92714  -2.09616
N    -1.82117  -0.41533   1.35495
C    -0.66068  -0.20428   1.85652
C    -0.34820  -0.41141   3.29814
C     0.40208   0.25706   0.88919
C     1.51215  -0.82062   0.65684
O     0.80417  -1.78124  -0.13307
C     0.46452  -0.89230  -1.21273
C     1.81449  -0.27293  -1.54414
C     2.46774  -0.23406  -0.37765
C     3.76755   0.40554  -0.06075
F     3.60683   1.44920   0.78576
F     4.39132   0.87158  -1.15417
F     4.61475  -0.44887   0.55054
C    -0.33627   0.23202  -0.47680
H    -4.61684   2.79900   0.58536
H    -4.97653   2.28211  -1.09710
H    -5.86978   1.54038   0.28090
H    -2.86993  -3.28119  -1.13635
H    -1.53082  -2.88565   0.01494
H    -3.20124  -2.55128   0.48232
H     0.42696  -1.18756   3.41068
H    -1.24219  -0.71002   3.86073
H     0.06637   0.51513   3.72834
H     0.83207   1.22351   1.18452
H     1.94852  -1.27022   1.55468
H    -0.05007  -1.42076  -2.02054
H     2.11192   0.13577  -2.50906
H    -0.29779   1.17381  -1.03080
