36
Generated by autodE on: 2022-05-29. E = -1197.522686 Ha. Imaginary frequency = -351.2 cm-1
C    -3.62451   2.72175   0.90240
O    -3.05696   1.41329   1.00443
C    -3.16404   0.62577  -0.08884
O    -3.74797   0.98846  -1.09840
C    -2.49250  -0.66102   0.09710
C    -2.54936  -1.74631  -0.87841
C    -2.02864  -3.09066  -0.42621
O    -2.96687  -1.58088  -2.02744
N    -1.90593  -0.88514   1.28848
C    -0.97875  -0.63340   1.99764
C    -0.42730  -0.69764   3.34530
C     0.38388   0.57817   0.64629
C     1.50212  -0.47152   0.43063
O     0.82535  -1.39197  -0.43653
C     0.46639  -0.41818  -1.43688
C     1.86032   0.17104  -1.75156
C     2.50533   0.13251  -0.58260
C     3.83082   0.67813  -0.21770
F     3.71324   1.65766   0.70876
F     4.48567   1.19921  -1.26834
F     4.63446  -0.26092   0.32753
C    -0.24672   0.63340  -0.56788
H    -3.13791   3.29667   0.10028
H    -3.44655   3.20531   1.87043
H    -4.70471   2.66651   0.70212
H    -0.95434  -3.01096  -0.20050
H    -2.53699  -3.42591   0.49099
H    -2.18202  -3.82360  -1.22865
H    -0.98438  -1.42447   3.95600
H     0.63971  -0.95949   3.31430
H    -0.51977   0.30433   3.79557
H     0.43103   1.37052   1.39376
H     1.92572  -0.96358   1.31220
H    -0.09405  -0.86175  -2.26582
H     2.17946   0.58946  -2.70497
H    -0.87334   1.42497  -0.97229
