28
Generated by autodE on: 2022-06-17. E = -799.026280 Ha
C     4.27901  -0.71688  -0.26754
O     2.97344  -0.28337  -0.66353
C     2.04304  -0.26111   0.30692
O     2.25880  -0.58706   1.46812
N     0.84434   0.19947  -0.12999
C    -0.35716   0.15777   0.69403
C    -0.86738  -1.27076   0.89485
O    -0.14014  -2.24480   0.81715
C    -2.31000  -1.41588   1.19029
C    -3.20592  -0.48443   0.81219
C    -2.80714   0.75486   0.11082
O    -3.64998   1.54004  -0.30203
C    -1.33904   1.01836  -0.11087
C    -0.84819   0.71442  -1.54906
N     0.61424   0.71590  -1.44699
C     1.18362   2.06436  -1.56972
H     4.24939  -1.74862   0.11201
H     4.89777  -0.66809  -1.17151
H     4.69275  -0.05478   0.50713
H    -0.17259   0.57023   1.69936
H    -2.61868  -2.36004   1.64668
H    -4.27906  -0.62294   0.96772
H    -1.17348   2.08276   0.10640
H    -1.20446  -0.27972  -1.86195
H    -1.18149   1.45821  -2.28053
H     0.98786   2.42908  -2.58718
H     0.76634   2.78461  -0.84232
H     2.27037   2.01122  -1.42942
