16
Generated by autodE on: 2022-06-17. E = -417.340192 Ha
C    -1.93621  -0.90050  -0.75579
N    -1.61706   0.07547   0.04339
C    -2.69021   0.87878   0.65727
N    -0.40803   0.52161   0.45092
C     0.69341  -0.07500  -0.05331
O     0.80879  -0.99439  -0.86952
O     1.79693   0.51660   0.49216
C     3.05716   0.00910   0.06330
H    -2.99555  -1.07777  -0.93553
H    -1.15123  -1.49647  -1.21004
H    -2.55084   1.92451   0.35598
H    -2.59390   0.80317   1.74751
H    -3.66749   0.50977   0.32986
H     3.16572  -1.05798   0.31309
H     3.81866   0.59172   0.59761
H     3.19119   0.13405  -1.02266
