28
Generated by autodE on: 2022-06-17. E = -798.969553 Ha. Imaginary frequency = -272.8 cm-1
C     4.27308  -0.94402  -0.85080
O     2.93792  -0.51070  -1.14034
C     2.04389  -0.61945  -0.13725
O     2.31896  -1.10410   0.94923
N     0.77331  -0.23073  -0.47982
C    -0.53727   0.49233   1.08746
C    -0.95853  -0.84676   1.56174
O    -0.32012  -1.47837   2.39829
C    -2.22345  -1.39393   1.01087
C    -3.08478  -0.61556   0.33314
C    -2.78910   0.81792   0.06508
O    -3.66019   1.55560  -0.39717
C    -1.42431   1.28440   0.34633
C    -0.71365   0.87588  -1.72064
N     0.56519   0.74768  -1.36931
C     1.40626   1.95702  -1.33696
H     4.28620  -2.01289  -0.59289
H     4.84976  -0.77040  -1.76707
H     4.69904  -0.36238  -0.02028
H     0.29244   0.94274   1.63384
H    -2.44164  -2.43855   1.24686
H    -4.04909  -0.98536  -0.02450
H    -1.27175   2.36428   0.28872
H    -1.00693   1.76248  -2.28102
H    -1.28607  -0.04530  -1.82159
H     1.01200   2.68018  -2.05856
H     1.37327   2.37903  -0.32037
H     2.43707   1.69941  -1.59537
