15
Generated by autodE on: 2022-07-27. E = -495.114618 Ha
C    -1.57892  -2.15755  -0.46384
C    -0.31694  -1.37066  -0.59212
O     0.67948  -1.72873  -1.19658
C    -0.24245  -0.03422   0.07854
O    -1.24398   0.36891   0.73445
O    -1.17424   1.57173   1.33906
C     0.98242   0.85893  -0.05469
C     1.96299   0.80656   1.06285
O     1.07625   1.50932  -1.07299
H    -1.79765  -2.34296   0.60021
H    -2.42331  -1.57923  -0.87249
H    -1.47199  -3.10773  -1.00131
H     2.41433  -0.20095   1.07299
H     2.74065   1.56982   0.92584
H     1.43650   0.94325   2.02052
