38
Generated by autodE on: 2022-06-18. E = -846.640872 Ha. Imaginary frequency = -124.4 cm-1
C    -2.19684  -3.71799   0.48105
C    -0.99629  -2.88593   0.11779
O    -0.37509  -3.05742  -0.92166
C    -0.61037  -1.80410   1.06775
C     0.64177  -1.02472   0.95971
C     1.25746  -0.42919   2.19660
O     1.19960  -0.91710  -0.12948
O    -1.42809  -1.73582   2.08914
O    -1.44310  -0.62393   2.81796
C    -2.32913   0.84743   1.23872
C    -1.56997   0.87254   0.08922
C    -1.95572   0.06958  -1.12751
C    -0.44684   1.77382   0.02190
C     0.41051   1.88162  -1.03604
C     1.54772   2.76243  -1.04134
C     2.45775   2.90298  -2.04453
C     2.41817   2.14355  -3.33705
C     3.60376   3.86048  -1.90564
H    -2.07846  -4.16811   1.47837
H    -3.09694  -3.08384   0.51462
H    -2.32439  -4.50189  -0.27588
H     0.97183  -0.95249   3.11790
H     2.34812  -0.44183   2.05882
H     0.93328   0.61931   2.28976
H    -2.15583   1.57604   2.03180
H    -3.24070   0.25123   1.29436
H    -2.28805   0.74534  -1.93360
H    -1.10680  -0.50553  -1.52510
H    -2.77508  -0.62662  -0.90153
H    -0.25759   2.38588   0.91054
H     0.22959   1.26984  -1.92237
H     1.68944   3.36802  -0.13890
H     2.36979   2.84637  -4.18721
H     3.35403   1.57216  -3.46658
H     1.57563   1.44554  -3.41733
H     4.56689   3.32738  -1.99811
H     3.58837   4.60419  -2.72229
H     3.58815   4.39353  -0.94423
