48
Generated by autodE on: 2022-06-20. E = -1132.160577 Ha
C    -3.46267  -4.84004   0.72562
O    -2.68642  -3.66192   1.00333
C    -2.46092  -2.83684  -0.01436
O    -2.84703  -3.01695  -1.14886
C    -1.68386  -1.62787   0.43079
C    -0.37977  -1.87025   1.24046
C     0.36735  -0.50743   1.08325
C     0.63701   0.17054   2.42931
C     1.63072  -0.65626   0.26102
C     2.52868   0.33025   0.07507
C     3.66907   0.24187  -0.81879
C     4.47219   1.26708  -1.19397
C     4.30940   2.68705  -0.72682
C     5.60419   1.04707  -2.15787
C    -0.71060   0.27853   0.21702
C    -0.29095   1.56587  -0.41364
C    -0.30713   2.75647   0.32587
C     0.20816   3.93221  -0.22613
C     0.74125   3.92828  -1.51885
C     0.74539   2.74501  -2.26369
C     0.23230   1.56877  -1.71365
N    -1.20367  -0.76097  -0.64775
O    -1.86087   0.53852   1.14882
C    -2.48340  -0.64050   1.30224
O    -3.43862  -0.82022   2.01579
H    -2.95588  -5.46109  -0.02639
H    -3.54112  -5.37920   1.67616
H    -4.46090  -4.55962   0.36067
H     0.17748  -2.69751   0.78441
H    -0.59778  -2.12357   2.28488
H     1.37219  -0.42064   2.99502
H     1.04590   1.18193   2.29623
H    -0.27857   0.24932   3.03137
H     1.76142  -1.60118  -0.27655
H     2.37002   1.28260   0.58632
H     3.86343  -0.74620  -1.25306
H     5.24365   3.04791  -0.26190
H     3.49018   2.82810  -0.01073
H     4.11946   3.34925  -1.58978
H     5.67882  -0.00227  -2.47911
H     5.48220   1.67944  -3.05552
H     6.56728   1.34297  -1.70450
H    -0.71767   2.76218   1.33595
H     0.19541   4.85460   0.35891
H     1.15158   4.84637  -1.94563
H     1.15809   2.73399  -3.27491
H     0.25725   0.64215  -2.28709
H    -1.97601  -0.42465  -1.22884
