23
Generated by autodE on: 2022-06-20. E = -351.521383 Ha
C     3.51727   1.31565   0.44344
C     2.53918   0.39568   0.29231
C     2.84977  -1.07882   0.25257
C     1.14775   0.82427   0.16395
C     0.07839   0.00385   0.00828
C    -1.28344   0.48322  -0.11297
C    -2.40329  -0.26672  -0.27145
C    -3.75418   0.38237  -0.37994
C    -2.41665  -1.76680  -0.35234
H     4.56636   1.02304   0.54180
H     3.28838   2.38547   0.47212
H     2.51348  -1.53032  -0.69559
H     2.32589  -1.61715   1.05989
H     3.92836  -1.26173   0.35880
H     0.97496   1.90671   0.19925
H     0.24311  -1.07652  -0.02743
H    -1.40699   1.57215  -0.06939
H    -4.42699   0.02122   0.41867
H    -3.69540   1.47881  -0.31586
H    -4.24240   0.11360  -1.33399
H    -2.87086  -2.09335  -1.30456
H    -3.05104  -2.18686   0.44814
H    -1.42140  -2.22284  -0.27461
