25
Generated by autodE on: 2022-06-20. E = -780.623030 Ha
C     4.33226   1.88226  -0.47966
O     3.01537   1.34299  -0.32597
C     2.88648   0.00642  -0.48974
O     3.82777  -0.73001  -0.75446
C     1.52674  -0.42137  -0.31505
N     0.45898   0.42821  -0.01616
C    -0.66020  -0.25911   0.08073
C    -1.99408   0.22532   0.37134
C    -3.06571  -0.68686   0.41487
C    -4.35288  -0.23054   0.69169
C    -4.58231   1.12935   0.92581
C    -3.51805   2.03846   0.88359
C    -2.22784   1.59425   0.60829
O    -0.41351  -1.54705  -0.13688
C     1.00663  -1.72949  -0.40508
O     1.42922  -2.84443  -0.63022
H     4.71529   1.69311  -1.49344
H     5.02226   1.44230   0.25550
H     4.23979   2.96133  -0.30872
H     0.54889   1.43605   0.10397
H    -2.88206  -1.74599   0.23102
H    -5.18226  -0.93998   0.72465
H    -5.59275   1.48318   1.14205
H    -3.69570   3.10002   1.06685
H    -1.40419   2.31039   0.57959
