48
Generated by autodE on: 2022-06-20. E = -1132.117047 Ha. Imaginary frequency = -488.7 cm-1
C    -3.49179  -4.82046   0.81295
O    -2.98791  -3.49505   1.04515
C    -2.45687  -2.86463  -0.00032
O    -2.37023  -3.33157  -1.12001
C    -1.89629  -1.54985   0.37753
C    -0.25479  -1.90201   1.31702
C     0.57945  -0.73833   1.25409
C     0.64103   0.20339   2.43096
C     1.60062  -0.67536   0.24009
C     2.51709   0.32541   0.08826
C     3.49213   0.37145  -0.97643
C     4.36635   1.37587  -1.24398
C     4.46953   2.64223  -0.43884
C     5.31508   1.28671  -2.40637
C    -1.14943   0.46983  -0.03402
C    -0.45259   1.60492  -0.55911
C    -0.38871   2.80660   0.18080
C     0.38592   3.86909  -0.27922
C     1.10160   3.75878  -1.47869
C     1.04560   2.57106  -2.21385
C     0.29200   1.49335  -1.75338
N    -1.48892  -0.69180  -0.65575
O    -1.95942   0.59660   1.06724
C    -2.50508  -0.64407   1.36622
O    -3.22524  -0.81240   2.31900
H    -2.68576  -5.47768   0.45670
H    -3.87033  -5.17091   1.77961
H    -4.30288  -4.79704   0.07131
H     0.06573  -2.75179   0.70546
H    -0.64338  -2.20132   2.29545
H     1.54815   0.01569   3.03368
H     0.68482   1.26081   2.12312
H    -0.22756   0.07918   3.09285
H     1.60138  -1.48798  -0.49750
H     2.50754   1.15126   0.80410
H     3.50000  -0.49528  -1.64952
H     5.46093   2.71558   0.04479
H     3.70172   2.73048   0.34068
H     4.38499   3.52366  -1.09784
H     5.21580   0.33609  -2.95148
H     5.14476   2.11421  -3.11938
H     6.36387   1.38627  -2.07116
H    -0.95254   2.89851   1.10946
H     0.42911   4.79383   0.30037
H     1.70761   4.59514  -1.83360
H     1.61170   2.47389  -3.14228
H     0.27609   0.56422  -2.32443
H    -0.90337  -1.05991  -1.40334
