44
Generated by autodE on: 2022-06-21. E = -1216.495929 Ha
C     4.31854  -1.43162  -0.64711
O     3.10054  -0.89722  -0.10193
C     2.11919  -0.62740  -0.95820
O     2.18942  -0.79943  -2.15437
C     0.90490  -0.04742  -0.21521
C     0.56066  -1.00474   0.94015
O     0.41535  -0.63835   2.08671
O     0.49466  -2.26194   0.53354
C     0.15180  -3.25161   1.52176
N     1.27044   1.26148   0.36246
N     0.39633   2.20818  -0.20824
C     0.79124   3.47455  -0.52650
C     2.19771   3.85154  -0.14347
O     0.00924   4.25917  -1.06890
C    -0.81638   1.57899  -0.69173
C    -0.27379   0.23940  -1.20202
C    -1.33473  -0.84446  -1.35909
C    -2.18573  -0.92407  -0.11771
C    -2.83806  -2.15710   0.33283
N    -2.77284  -3.22426  -0.50388
O    -3.42415  -2.25771   1.43247
C    -2.33639   0.19577   0.65031
N    -1.79574   1.40933   0.38348
C    -1.95694   2.52359   1.30397
H     4.98670  -1.58881   0.20687
H     4.11930  -2.38417  -1.15834
H     4.76333  -0.71775  -1.35477
H    -0.79018  -2.97884   2.01527
H     0.95656  -3.32794   2.26634
H     0.04115  -4.19380   0.97535
H     1.08116   1.20961   1.36849
H     2.92073   3.14321  -0.57284
H     2.39736   4.86684  -0.50736
H     2.32225   3.82226   0.94970
H    -1.23245   2.20033  -1.49479
H     0.19400   0.43526  -2.17347
H    -1.93831  -0.60200  -2.25131
H    -0.83288  -1.79849  -1.57093
H    -3.22458  -4.08682  -0.22128
H    -2.36434  -3.17155  -1.42822
H    -2.94864   0.14757   1.55306
H    -1.10493   2.60692   2.00043
H    -2.87576   2.38316   1.88773
H    -2.03703   3.46625   0.74311
