24
Generated by autodE on: 2022-06-21. E = -758.714490 Ha
C    -3.89752  -0.39697  -0.90661
O    -2.58557  -0.17981  -0.35726
C    -1.56024  -0.63615  -1.06015
O    -1.64459  -1.22978  -2.12011
C    -0.25579  -0.36931  -0.40107
N     0.76247  -0.94303  -1.00722
N     2.05428  -0.99462  -0.78971
C     2.63520   0.04546  -0.09731
C     4.06699  -0.20465   0.27661
O     2.06575   1.10960   0.16479
C    -0.14933   0.26537   0.94589
O     0.32849  -0.32082   1.89470
O    -0.70372   1.46618   0.98568
C    -0.66272   2.14889   2.25101
H    -4.09005  -1.47400  -1.01149
H    -4.59702   0.05064  -0.19240
H    -3.98228   0.09256  -1.88700
H     0.46009  -1.49445  -1.82693
H     4.55131  -0.91757  -0.40269
H     4.07871  -0.63554   1.29319
H     4.61803   0.74524   0.30598
H    -1.19544   1.56741   3.01662
H    -1.15880   3.11193   2.08771
H     0.38130   2.30105   2.55920
