44
Generated by autodE on: 2022-06-21. E = -1216.429611 Ha. Imaginary frequency = -314.5 cm-1
C     3.12129  -1.58098  -2.72767
O     2.06531  -1.32518  -1.79001
C     2.26322  -0.33332  -0.92288
O     3.27100   0.34080  -0.89621
C     1.10007  -0.12572   0.01843
C     0.62590  -1.29647   0.85221
O     0.27042  -1.15874   2.00825
O     0.65354  -2.46377   0.22666
C     0.25852  -3.61719   0.99159
N     1.16874   0.98856   0.80498
N     1.17295   2.17822   0.17451
C     0.98565   3.22673   1.02733
C     0.87790   4.57079   0.35425
O     0.92504   3.11117   2.26626
C    -0.78810   1.63463  -1.01093
C    -0.26857   0.40427  -1.49571
C    -1.23594  -0.75865  -1.57262
C    -2.07861  -0.77688  -0.31973
C    -2.71670  -2.00781   0.20227
N    -2.70945  -3.07627  -0.62496
O    -3.24014  -2.06062   1.32785
C    -2.28800   0.38089   0.35005
N    -1.78547   1.59814  -0.08737
C    -2.24593   2.82848   0.55377
H     4.05076  -1.83767  -2.19989
H     2.78293  -2.42742  -3.33596
H     3.29107  -0.69921  -3.36222
H    -0.69825  -3.43785   1.49745
H     1.03243  -3.84485   1.73860
H     0.16890  -4.43724   0.27134
H     0.66473   0.93718   1.69764
H     0.00476   5.11369   0.74555
H     1.77147   5.16702   0.60482
H     0.80755   4.48394  -0.73771
H    -0.56759   2.59588  -1.46404
H     0.40430   0.51464  -2.34719
H    -1.87108  -0.66260  -2.47636
H    -0.67604  -1.69562  -1.69195
H    -2.28161  -3.05629  -1.54261
H    -3.11910  -3.94588  -0.29989
H    -2.90273   0.41859   1.24943
H    -2.01555   3.68103  -0.09568
H    -3.33119   2.78076   0.71203
H    -1.74566   2.96532   1.52258
