47
Generated by autodE on: 2022-06-19. E = -981.876472 Ha
C     4.22976   1.17862  -1.55106
O     3.21886   0.80190  -0.60489
C     2.43220  -0.22292  -0.92976
O     2.55791  -0.84171  -1.96744
C     1.31426  -0.44321   0.12123
C     1.97116  -0.45324   1.51587
C     1.16827   0.04975   2.67565
O     3.09112  -0.91924   1.64701
C     0.59907  -1.81451  -0.14358
C     1.01570  -2.98628   0.73835
C    -0.89463  -1.47356  -0.08162
C    -1.79440  -2.48269  -0.77892
C    -0.96141  -0.01691  -0.61944
C    -0.89437   0.05420  -2.15559
C    -2.21586   0.67355  -0.07427
C    -3.37614   0.82783  -0.84783
C    -4.53394   1.39935  -0.30640
C    -4.55236   1.83560   1.01960
C    -3.40030   1.69221   1.80097
C    -2.24970   1.11717   1.25924
N     0.24889   0.54772   0.00505
C     0.57758   1.93187  -0.25604
H     3.77044   1.45787  -2.51011
H     4.74788   2.03891  -1.11234
H     4.93386   0.34917  -1.70873
H     1.71478  -0.13409   3.60966
H     0.18718  -0.44728   2.70033
H     0.97374   1.12677   2.55763
H     0.84606  -2.07621  -1.18113
H     2.09652  -3.17603   0.66902
H     0.76530  -2.81834   1.79759
H     0.49358  -3.89810   0.41193
H    -1.18582  -1.41871   0.98020
H    -1.77379  -3.44926  -0.25295
H    -2.83971  -2.13563  -0.79398
H    -1.47761  -2.66122  -1.81803
H    -1.72614  -0.47809  -2.63468
H    -0.92946   1.10032  -2.49405
H     0.04012  -0.38952  -2.52396
H    -3.39216   0.49844  -1.88643
H    -5.42453   1.50425  -0.93111
H    -5.45429   2.28563   1.44144
H    -3.39703   2.03231   2.83967
H    -1.35447   1.01182   1.87090
H     0.97674   2.12616  -1.27124
H     1.32484   2.28868   0.46796
H    -0.32684   2.54520  -0.13033
