47
Generated by autodE on: 2022-06-19. E = -981.788770 Ha. Imaginary frequency = -361.3 cm-1
C     3.01616   1.20778  -2.66190
O     2.30071   1.12336  -1.42569
C     2.39842  -0.04259  -0.74954
O     3.17395  -0.92003  -1.10242
C     1.53720  -0.06292   0.45008
C     2.18158  -0.29765   1.73103
C     3.62338  -0.76994   1.75556
O     1.59170  -0.14090   2.81282
C     0.42482  -2.32697   0.33656
C     0.83686  -2.86199   1.67107
C    -0.88472  -1.88746   0.10979
C    -1.70366  -2.45684  -1.02896
C    -0.66426   0.16976  -0.47829
C    -0.25069  -0.08101  -1.91350
C    -2.03952   0.75254  -0.32667
C    -2.63996   1.45892  -1.38513
C    -3.92886   1.98442  -1.26085
C    -4.65288   1.80226  -0.08076
C    -4.07367   1.09388   0.97749
C    -2.78405   0.57866   0.85606
N     0.30222   0.60152   0.41013
C    -0.01702   1.60155   1.44158
H     2.78564   2.19479  -3.08047
H     4.09888   1.11371  -2.49363
H     2.68912   0.41871  -3.35571
H     4.29006  -0.01854   1.30284
H     3.91197  -0.92632   2.80299
H     3.75878  -1.70075   1.19043
H     1.01728  -2.65442  -0.52506
H     1.92451  -2.96508   1.78256
H     0.45181  -2.24468   2.49609
H     0.40090  -3.87221   1.79299
H    -1.46525  -1.73205   1.02597
H    -2.14781  -3.41497  -0.70706
H    -1.09019  -2.66892  -1.91616
H    -2.53609  -1.79812  -1.32232
H    -1.09364  -0.46384  -2.49446
H     0.07546   0.86600  -2.36798
H     0.57124  -0.79859  -2.00404
H    -2.09452   1.61966  -2.31491
H    -4.36745   2.53721  -2.09487
H    -5.66358   2.20600   0.01432
H    -4.63117   0.93761   1.90390
H    -2.35517   0.02488   1.69043
H    -0.51420   1.18289   2.32376
H    -0.65747   2.37400   0.99826
H     0.91725   2.07304   1.76323
