56
Generated by autodE on: 2022-07-01. E = -4514.285868 Ha
C     0.90142  -4.24177  -2.77918
N    -0.20231  -4.87064  -2.07682
C    -1.16640  -4.14855  -1.50987
O    -1.19600  -2.91059  -1.54080
C    -2.38002  -4.88195  -0.85038
C    -2.18335  -6.39727  -0.62216
O    -1.63124  -7.14117  -1.41079
O    -2.75415  -6.80586   0.49427
C    -2.73604  -8.21214   0.78927
C    -2.77567  -4.15537   0.42404
C    -4.00655  -3.61550   0.32669
C    -4.70114  -2.68773   1.30355
Cl   -4.49943  -0.98028   0.64456
Br   -6.66734  -3.05543   1.34864
C    -4.23434  -2.61154   2.75742
C    -4.37073  -3.86254   3.62461
C    -3.65505  -5.11623   3.12904
C    -2.16730  -4.94624   2.82307
C    -1.77930  -4.16126   1.56666
F    -0.60704  -4.71680   1.08345
F    -1.41990  -2.86602   1.86876
C    -4.62598  -3.98508  -1.03370
C    -5.75069  -5.07129  -0.85819
C    -6.92259  -5.11167  -1.79225
O    -5.56251  -5.95165  -0.03950
C    -5.04944  -2.71714  -1.83831
O    -6.21514  -2.33343  -1.91715
N    -4.01596  -2.08314  -2.41664
C    -4.18322  -0.77944  -3.02043
N    -3.51829  -4.63642  -1.71265
C    -3.70563  -5.37218  -2.94216
H     1.47684  -3.59081  -2.10316
H     1.56332  -5.02377  -3.16987
H     0.53850  -3.62661  -3.61761
H    -0.30006  -5.88403  -2.06884
H    -3.27735  -8.76525   0.00936
H    -3.24070  -8.31814   1.75565
H    -1.69991  -8.57171   0.85278
H    -3.19666  -2.26211   2.74214
H    -4.81359  -1.79946   3.21766
H    -5.43696  -4.09342   3.77129
H    -3.97233  -3.58734   4.61512
H    -4.16714  -5.52956   2.24840
H    -3.73711  -5.88681   3.91120
H    -1.72485  -5.94098   2.68535
H    -1.64042  -4.46550   3.66293
H    -6.61216  -4.91955  -2.82899
H    -7.41010  -6.09182  -1.70783
H    -7.62592  -4.31082  -1.52610
H    -3.07347  -2.40457  -2.18573
H    -3.26803  -0.51496  -3.56541
H    -5.02773  -0.78548  -3.72460
H    -4.38074  -0.00258  -2.26051
H    -4.36731  -4.80463  -3.61290
H    -2.73972  -5.48712  -3.45329
H    -4.13811  -6.38076  -2.79784
