36
Generated by autodE on: 2022-07-01. E = -970.256060 Ha
C    -3.56535  -0.06714   2.24070
N    -2.81205  -0.76285   1.22178
C    -1.69649  -0.24189   0.68339
O    -1.23910   0.85906   1.06643
C    -1.07013  -1.02408  -0.40987
C    -1.51178  -2.31993  -0.83503
C    -0.65625  -3.14210  -1.78009
O    -2.56342  -2.84995  -0.40400
N    -0.01669  -0.37112  -1.05728
C    -0.03562  -0.22981  -2.53040
C     0.86912   0.32035  -0.37553
C     1.72184   1.36220  -1.06358
O     2.80392   1.04527  -1.56137
N     1.20700   2.59667  -1.07126
C     1.91853   3.71847  -1.65837
C     1.22074  -0.00981   1.03646
O     1.03140  -1.07626   1.58189
O     1.87133   1.01247   1.58935
C     2.32913   0.83370   2.93920
H    -4.12146   0.79530   1.83393
H    -2.89657   0.30959   3.02932
H    -4.28636  -0.76274   2.68907
H    -3.14034  -1.63642   0.79837
H    -0.67918  -4.18225  -1.42372
H     0.38720  -2.81155  -1.85180
H    -1.10166  -3.13456  -2.78813
H    -0.22934   0.82232  -2.77827
H    -0.84768  -0.83470  -2.93817
H     0.93171  -0.53562  -2.94502
H     0.33316   2.75507  -0.57657
H     2.22215   3.48355  -2.68902
H     1.25460   4.59088  -1.67005
H     2.82334   3.96440  -1.07943
H     2.82715   1.77022   3.21318
H     3.03497  -0.00705   2.99419
H     1.47452   0.64365   3.60401
