36
Generated by autodE on: 2022-07-27. E = -970.251560 Ha
C    -3.55591   3.18951  -1.12218
N    -2.53699   2.41781  -0.43395
C    -2.11641   1.23466  -0.89758
O    -2.53008   0.72499  -1.94493
C    -1.09612   0.49586  -0.06349
C    -1.54022  -0.24497   1.12417
C    -2.96977  -0.03379   1.56112
O    -0.78598  -0.96561   1.78036
N     0.20055   0.61490  -0.39370
C     0.56986   1.76219  -1.26149
C     1.17178  -0.27176  -0.01041
C     2.49022   0.28173   0.38529
O     2.65841   1.50451   0.54354
N     3.49444  -0.59879   0.59015
C     4.76382  -0.15833   1.12703
C     0.89471  -1.71136  -0.01110
O     1.62546  -2.56123   0.48869
O    -0.19010  -2.05127  -0.71818
C    -0.56964  -3.43015  -0.70184
H    -3.76607   4.09534  -0.54130
H    -4.48437   2.60677  -1.22706
H    -3.21861   3.48044  -2.12951
H    -2.13644   2.77211   0.42977
H    -3.66024  -0.21440   0.72229
H    -3.19480  -0.72957   2.37902
H    -3.13165   0.99785   1.90812
H    -0.08440   1.72726  -2.14173
H     0.42985   2.70644  -0.72476
H     1.60508   1.65568  -1.58539
H     3.24760  -1.58655   0.60754
H     4.66067   0.26570   2.14111
H     5.21475   0.61590   0.48795
H     5.44590  -1.01645   1.17378
H    -1.49862  -3.49159  -1.28077
H    -0.74442  -3.76748   0.33011
H     0.20686  -4.05614  -1.16502
