20
Generated by autodE on: 2022-07-01. E = -3543.928632 Ha
F     0.19108  -2.37743  -2.83846
C    -0.39158  -2.29118  -1.59806
F    -0.49640  -3.57724  -1.14718
C     0.44491  -1.46143  -0.72424
C     0.72487  -0.41546  -0.18092
C     0.59116   0.95254   0.24980
Cl    2.16782   1.83841   0.20282
Br   -0.05908   0.94475   2.14465
C    -0.43832   1.64842  -0.66035
C    -1.75179   0.87946  -0.90570
C    -1.79536  -0.15799  -2.06287
C    -1.77450  -1.65795  -1.70818
H    -0.64467   2.63489  -0.22024
H     0.07346   1.82256  -1.62036
H    -2.09695   0.41808   0.03422
H    -2.49682   1.65408  -1.13930
H    -0.99999   0.05556  -2.79625
H    -2.73956   0.00622  -2.60205
H    -2.28775  -1.83875  -0.75114
H    -2.30078  -2.23960  -2.48181
