56
Generated by autodE on: 2022-07-01. E = -4514.172150 Ha. Imaginary frequency = -204.4 cm-1
C     1.50009  -5.18662  -1.31747
N     0.11549  -5.57524  -1.50432
C    -0.86520  -4.66661  -1.33680
O    -0.63642  -3.45748  -1.23767
C    -2.29177  -5.18339  -1.25448
C    -2.47365  -6.67246  -1.26433
O    -1.81829  -7.44674  -0.59160
O    -3.30995  -7.07341  -2.22440
C    -3.59657  -8.47646  -2.28086
C    -2.69052  -4.38271   0.73673
C    -3.57066  -3.49079   0.68933
C    -4.13085  -2.29624   1.28612
Cl   -4.02295  -0.90897   0.04082
Br   -6.06556  -2.56981   1.69141
C    -3.40229  -1.77584   2.52998
C    -3.50539  -2.61563   3.80613
C    -3.11579  -4.09514   3.72790
C    -1.74857  -4.37632   3.07956
C    -1.85065  -5.09311   1.74457
F    -2.39172  -6.33946   1.96039
F    -0.57986  -5.31944   1.27532
C    -4.53576  -4.42943  -1.56204
C    -5.21465  -5.40729  -0.65037
C    -6.71280  -5.27393  -0.53318
O    -4.63836  -6.31044  -0.05894
C    -5.50428  -3.71879  -2.49910
O    -5.95753  -4.35881  -3.45334
N    -5.84426  -2.46208  -2.21190
C    -6.79270  -1.72348  -3.02489
N    -3.24155  -4.44631  -1.94233
C    -2.82607  -3.42170  -2.92617
H     1.69726  -4.89017  -0.27276
H     2.14602  -6.03517  -1.57452
H     1.75291  -4.33703  -1.96658
H    -0.11861  -6.55083  -1.34526
H    -4.32798  -8.60071  -3.08762
H    -4.02226  -8.81588  -1.32585
H    -2.68430  -9.04877  -2.50207
H    -2.35032  -1.66284   2.22326
H    -3.78074  -0.76571   2.74291
H    -4.52961  -2.54321   4.20362
H    -2.85528  -2.11398   4.54204
H    -3.89767  -4.66457   3.20195
H    -3.11273  -4.48906   4.75502
H    -1.13414  -5.03306   3.71359
H    -1.17134  -3.45438   2.91666
H    -7.16068  -5.78307  -1.40268
H    -7.04171  -5.78109   0.38216
H    -7.06267  -4.23645  -0.53839
H    -5.37061  -1.98940  -1.44554
H    -6.38989  -1.52702  -4.03159
H    -7.72965  -2.28988  -3.13349
H    -7.00564  -0.76685  -2.53251
H    -3.56148  -3.41111  -3.73748
H    -2.76277  -2.43468  -2.45237
H    -1.86014  -3.69509  -3.35433
