41
Generated by autodE on: 2022-06-21. E = -1140.023752 Ha
C    -1.80046   4.95643   0.62409
N    -1.57224   3.58837   0.20668
C    -0.56944   3.21215  -0.59674
O     0.28262   3.97018  -1.07292
C    -0.52713   1.72718  -0.96611
O    -1.51591   0.95422  -0.27382
C    -0.92320   0.12754   0.70937
C    -1.57409   0.37280   2.01069
N    -2.08208   0.60647   3.02596
C    -1.12074  -1.36997   0.37240
O    -1.08440  -2.22880   1.22627
O    -1.33159  -1.56928  -0.91369
C    -1.39192  -2.93976  -1.35565
C     0.58635   0.55749   0.77922
C     1.56378  -0.51651   1.24616
C     1.78278  -1.53558   0.15694
C     2.12044  -2.93543   0.42735
N     2.42041  -3.25559   1.71114
O     2.12843  -3.82016  -0.45726
C     1.62221  -1.15936  -1.14665
N     1.25347   0.06914  -1.57404
C     1.11306   0.34045  -2.99516
C     0.83915   1.10700  -0.63105
H    -2.69302   5.38082   0.13666
H    -1.94344   5.00494   1.71351
H    -0.92911   5.56325   0.35009
H    -2.21449   2.86278   0.51192
H    -0.76231   1.67574  -2.03740
H    -2.20883  -3.46657  -0.84393
H    -0.43402  -3.43710  -1.14927
H    -1.57801  -2.89566  -2.43407
H     0.62213   1.41232   1.46638
H     2.50356  -0.01619   1.53619
H     1.16483  -0.98260   2.15980
H     2.66712  -4.21593   1.92369
H     2.51443  -2.56008   2.44012
H     1.79842  -1.89173  -1.93671
H     0.08533   0.15898  -3.35457
H     1.79708  -0.30558  -3.56085
H     1.37544   1.38822  -3.20378
H     1.59885   1.90163  -0.60408
