20
Generated by autodE on: 2022-06-21. E = -457.715332 Ha
C     3.00595  -1.02209  -0.09583
N     1.82139  -0.18795   0.02341
C     1.93728   1.10271   0.55428
C     0.87438   1.88747   0.79209
C    -0.54582   1.45869   0.51599
C    -0.57419   0.04146  -0.03316
C    -1.84313  -0.61921  -0.37940
N    -2.96942   0.10604  -0.16494
O    -1.91250  -1.77453  -0.84592
C     0.57190  -0.66861  -0.23183
H     3.39763  -1.31411   0.89360
H     2.75514  -1.93241  -0.65490
H     3.80066  -0.48702  -0.63782
H     2.96018   1.42574   0.75641
H     1.04680   2.88633   1.19944
H    -1.02649   2.16607  -0.19076
H    -1.15348   1.53783   1.44066
H    -2.95215   1.04145   0.22049
H    -3.86676  -0.31400  -0.38070
H     0.52083  -1.68581  -0.62354
