21
Generated by autodE on: 2022-06-21. E = -682.208739 Ha
C     4.14598   0.94085  -0.53136
N     2.80424   0.42247  -0.36705
C     2.51123  -0.89151  -0.38835
O     3.32451  -1.81094  -0.54070
C     1.08470  -1.23696  -0.20715
O     0.24932  -0.28783  -0.04913
C    -1.07503  -0.28445   0.14359
C    -1.78412  -1.49315   0.20856
N    -2.34638  -2.51660   0.26094
C    -1.64351   1.04747   0.26409
O    -0.99643   2.08008   0.19956
O    -2.97007   0.99358   0.45342
C    -3.65227   2.24874   0.57826
H     4.43451   1.55567   0.33523
H     4.84392   0.10044  -0.62041
H     4.21920   1.56281  -1.43757
H     2.04070   1.08185  -0.23857
H     0.76030  -2.28243  -0.20489
H    -3.52204   2.85075  -0.33294
H    -3.27351   2.80993   1.44495
H    -4.71091   2.00290   0.72056
