35
Generated by autodE on: 2022-05-31. E = -1325.835439 Ha
C     4.86877   1.66371   0.57781
N     3.78208   0.89187   0.00357
C     2.71292   0.52931   0.71431
O     2.50593   0.79705   1.89822
C     1.66225  -0.26847  -0.04022
O     1.60224  -1.60944   0.52036
C     1.03293  -2.37370  -0.43953
O     0.80388  -3.54378  -0.35682
C     0.82252  -1.38902  -1.62424
C     0.82988  -2.00156  -2.93838
N     0.80659  -2.50086  -3.98336
O     1.95231  -0.52132  -1.40231
C    -0.37375  -0.44575  -1.29096
C    -1.62373  -1.08065  -0.62995
O    -1.13073  -1.37808   0.68154
C    -0.75895  -0.03689   1.03576
C    -2.04686   0.71566   0.69345
C    -2.41797   1.99036   1.35457
F    -3.62663   2.45021   0.99144
F    -2.42975   1.86660   2.69970
F    -1.52284   2.96980   1.07771
C    -2.58567   0.08377  -0.36533
C    -3.74338   0.36810  -1.24818
C     0.24350   0.33490  -0.08904
H     5.40775   2.17930  -0.22642
H     4.46664   2.40724   1.27902
H     5.57683   1.01943   1.12401
H     3.85612   0.56469  -0.95560
H    -0.59853   0.16770  -2.17002
H    -2.03599  -1.96927  -1.11996
H    -0.37989   0.02651   2.06005
H    -3.39261   0.46255  -2.29023
H    -4.27616   1.28347  -0.96794
H    -4.44624  -0.48169  -1.23225
H     0.31781   1.41519  -0.24983
