16
Generated by autodE on: 2022-07-26. E = -641.693346 Ha
C     1.77950   2.36668   3.01210
N     1.11565   1.35208   2.21599
C     0.91603   1.47417   0.89929
O     1.23691   2.40867   0.17366
C     0.20785   0.29309   0.28818
O    -0.17387  -0.76281   0.90475
C    -0.84325  -1.68568  -0.12186
O    -1.27948  -2.74051   0.23527
C    -0.71007  -0.90488  -1.27641
C    -1.12035  -1.15139  -2.58813
N    -1.47300  -1.37933  -3.67746
O    -0.06124   0.29508  -0.97121
H     2.07056   3.19867   2.36134
H     1.10452   2.74001   3.79693
H     2.67821   1.94973   3.49097
H     0.78294   0.51144   2.68347
