14
Generated by autodE on: 2022-06-18. E = -270.683214 Ha
C    -1.29204  -0.70637   0.59453
C    -0.67884   0.54743   0.03996
C    -1.57570   1.74227  -0.03789
C     0.61500   0.62885  -0.37539
C     1.58683  -0.45382  -0.35000
O     1.40249  -1.59715   0.06131
H    -2.35681  -0.55965   0.82349
H    -0.77240  -1.02089   1.51410
H    -1.18731  -1.54476  -0.11146
H    -1.97080   1.97980   0.96563
H    -1.06894   2.62830  -0.44447
H    -2.45651   1.51041  -0.66224
H     0.98459   1.58000  -0.76954
H     2.59006  -0.17395  -0.75404
