25
Generated by autodE on: 2022-06-18. E = -631.231057 Ha
C     4.01638   1.62773   0.36385
O     2.77330   0.97547   0.67448
C     2.74694  -0.35779   0.54381
O     3.68923  -1.03947   0.18475
C     1.47257  -0.90656   1.01480
N     0.48255  -1.13231   0.32697
C    -0.63618  -1.32929  -0.26366
C    -0.90877  -2.66391  -0.89864
C    -1.62398  -0.23439  -0.29518
C    -1.30952   1.04610   0.20623
C    -2.25549   2.06864   0.18042
C    -3.53092   1.83967  -0.35045
C    -3.84967   0.57669  -0.85728
C    -2.90712  -0.45328  -0.83274
H     4.28294   1.46881  -0.69094
H     4.82147   1.24665   1.00850
H     3.85062   2.69419   0.55465
H    -0.03771  -3.32387  -0.79821
H    -1.77552  -3.14846  -0.42055
H    -1.14448  -2.54599  -1.96809
H    -0.31238   1.24346   0.60461
H    -1.99408   3.05459   0.57180
H    -4.26956   2.64418  -0.37275
H    -4.84109   0.38843  -1.27589
H    -3.17615  -1.43263  -1.22977
