33
Generated by autodE on: 2022-06-17. E = -731.276292 Ha
C    -3.83455   0.46429  -0.96342
O    -2.88169   0.21104   0.08044
C    -1.60583   0.48626  -0.18845
O    -1.23935   0.97116  -1.23982
C    -0.66568   0.07313   0.95209
C    -1.30549   0.26389   2.32089
O     0.50498   0.89474   0.86800
C     1.63741   0.14645   0.43678
C     2.49377   0.91855  -0.55210
C     1.92245   2.15580  -1.17373
O     3.60772   0.49313  -0.82207
C     1.08422  -1.15900  -0.16535
C     2.07412  -2.31273  -0.16857
C    -0.16103  -1.37766   0.70694
C    -1.17436  -2.36053   0.13692
H    -3.59279  -0.13384  -1.85379
H    -4.80974   0.16875  -0.56011
H    -3.83840   1.53104  -1.22831
H    -0.55942   0.03428   3.09517
H    -2.16603  -0.40626   2.44970
H    -1.64686   1.30130   2.45423
H     2.28041  -0.09502   1.30367
H     2.62025   2.56062  -1.91813
H     1.73044   2.90330  -0.38685
H     0.94578   1.92859  -1.62674
H     0.75405  -0.95251  -1.19802
H     2.39123  -2.55817   0.85820
H     1.62404  -3.21307  -0.61391
H     2.97214  -2.05855  -0.75026
H     0.17891  -1.74634   1.68976
H    -2.06992  -2.42896   0.77218
H    -0.73041  -3.36538   0.07440
H    -1.49267  -2.07367  -0.87819
