12
Generated by autodE on: 2022-06-17. E = -157.300301 Ha
C     1.93526   0.00759  -0.33580
C     0.45969  -0.23888  -0.42466
C    -0.45968   0.23879   0.42472
C    -1.93527  -0.00753   0.33576
H     2.49455  -0.94040  -0.24318
H     2.31480   0.49929  -1.24917
H     2.19215   0.64239   0.52682
H     0.12240  -0.86581  -1.26202
H    -0.12238   0.86570   1.26210
H    -2.49436   0.94047   0.24198
H    -2.31513  -0.49819   1.24955
H    -2.19206  -0.64315  -0.52628
