21
Generated by autodE on: 2022-06-17. E = -573.874814 Ha
C     2.76055   2.07335   0.02782
O     1.62852   1.19478   0.00985
C     1.86990  -0.07908  -0.33564
O     2.97818  -0.50515  -0.62663
C     0.67086  -0.91746  -0.33014
C     0.67035  -2.35155  -0.66726
O    -0.42815  -0.30699   0.00129
C    -1.64917  -0.79210   0.09792
C    -2.68347   0.12702   0.48247
C    -2.29465   1.56481   0.74505
O    -3.85416  -0.26862   0.58970
H     2.37646   3.05379   0.33241
H     3.21603   2.13847  -0.97130
H     3.51330   1.72048   0.74803
H     0.28663  -2.94903   0.18124
H     1.68397  -2.68294  -0.91742
H    -0.00314  -2.54931  -1.52247
H    -1.83662  -1.84534  -0.11321
H    -3.19205   2.13613   1.01564
H    -1.82446   2.01114  -0.14544
H    -1.55672   1.62529   1.56077
