22
Generated by autodE on: 2022-06-21. E = -666.175263 Ha
C     4.58083   0.82580  -0.35142
O     3.24765   0.27653  -0.27298
C     2.26329   1.14214  -0.10879
O     2.34320   2.34773  -0.01630
C     0.98072   0.47221  -0.04351
N    -0.11446   0.07564   0.02050
C    -1.32418  -0.47161   0.08234
C    -1.32959  -1.93935  -0.04824
C    -2.64411  -2.66813   0.00723
O    -0.26708  -2.54375  -0.19988
C    -2.46560   0.42964   0.26587
C    -2.16031   1.90610   0.37000
O    -3.62009   0.00952   0.33248
H     4.65450   1.50969  -1.20823
H     5.24497  -0.03440  -0.48485
H     4.82076   1.36084   0.57778
H    -3.16085  -2.46612   0.95701
H    -2.45119  -3.74386  -0.09963
H    -3.31368  -2.32100  -0.79372
H    -3.09872   2.45885   0.50269
H    -1.64675   2.26256  -0.53752
H    -1.49016   2.10634   1.22155
