42
Generated by autodE on: 2022-06-21. E = -1123.877928 Ha. Imaginary frequency = -466.5 cm-1
C     4.46452   1.98547  -0.23087
O     3.10032   1.65584   0.10281
C     2.34529   1.19264  -0.88144
O     2.67001   1.07240  -2.04149
C     1.02031   0.73925  -0.39119
N     0.10850   1.31222   0.17721
C    -1.09534   0.99810   0.68041
C    -2.30862   1.40475  -0.05668
C    -2.10822   2.30456  -1.24892
O    -3.42583   1.03132   0.29170
C    -1.12372   0.56962   2.09996
C     0.14515   0.74067   2.89585
O    -2.13978   0.09776   2.59856
C    -0.75053  -1.34449  -0.60229
C    -1.42697  -0.89561  -1.83558
N    -2.75647  -1.13357  -1.92449
O    -0.80634  -0.34270  -2.76544
C    -1.48181  -2.16525   0.43427
C    -0.56692  -2.52104   1.57630
C     0.76646  -2.40017   1.48066
N     1.41379  -1.93837   0.33135
C     2.85401  -1.74365   0.36542
C     0.66044  -1.27802  -0.63562
H     4.92567   2.31905   0.70477
H     4.48690   2.78783  -0.98090
H     4.97733   1.09392  -0.61891
H    -1.61223   3.23919  -0.94288
H    -3.08374   2.52823  -1.69885
H    -1.46047   1.81759  -1.99441
H     0.40443   1.81035   2.95722
H     0.99156   0.23043   2.41510
H    -0.00535   0.33484   3.90383
H    -3.29975  -1.41994  -1.11877
H    -3.25656  -0.73515  -2.71290
H    -2.36722  -1.62402   0.81389
H    -1.88988  -3.08191  -0.04229
H    -1.00106  -2.90274   2.50142
H     1.43377  -2.67699   2.29912
H     3.23121  -1.61270  -0.65806
H     3.34086  -2.62829   0.79931
H     3.14290  -0.86160   0.96334
H     1.13061  -1.19764  -1.61876
