24
Generated by autodE on: 2022-10-26. E = -701.444435 Ha
C     1.00269  -3.18312  -0.08379
O     0.30156  -1.93927   0.10587
C     1.03629  -0.83729   0.07983
O     2.23397  -0.79672  -0.10217
C     0.20015   0.39975   0.24510
N     0.52988   1.27908   1.16732
N     1.36590   1.23068   2.20854
C     1.82745   0.06150   2.58456
N     2.27568  -0.92508   3.04344
C    -0.89844   0.67208  -0.68112
C    -0.89734   0.07636  -1.95998
C    -1.92498   0.34449  -2.86141
C    -2.96865   1.20577  -2.50590
C    -2.98295   1.79483  -1.23730
C    -1.96236   1.52745  -0.32685
H     0.24050  -3.96762  -0.02588
H     1.75169  -3.31123   0.71024
H     1.49455  -3.19381  -1.06650
H     0.06471   2.19055   1.11029
H    -0.08232  -0.58553  -2.25896
H    -1.90918  -0.11923  -3.84990
H    -3.77499   1.41038  -3.21356
H    -3.80398   2.45371  -0.94698
H    -2.01383   1.96190   0.67367
