24
Generated by autodE on: 2022-10-22. E = -701.450103 Ha
C     2.82961  -2.74496   0.10755
O     1.63870  -1.93894   0.11277
C     1.78993  -0.64808  -0.13628
O     2.85709  -0.11356  -0.38965
C     0.50607   0.11139  -0.11106
N     0.67868   1.35560  -0.50319
N    -0.24527   2.29671  -0.57928
C     0.18086   3.47406  -0.98727
N     0.43641   4.56514  -1.33991
C    -0.79107  -0.44584   0.28429
C    -1.95925  -0.14150  -0.44211
C    -3.18402  -0.68940  -0.06316
C    -3.26615  -1.52998   1.05174
C    -2.11281  -1.82894   1.78426
C    -0.88140  -1.29865   1.40249
H     2.50204  -3.76165   0.35021
H     3.53895  -2.37817   0.86266
H     3.29955  -2.71883  -0.88567
H     1.66102   1.57548  -0.74776
H    -1.90372   0.51340  -1.31075
H    -4.08065  -0.45673  -0.64182
H    -4.22887  -1.95145   1.34995
H    -2.17141  -2.47997   2.65923
H     0.01343  -1.53377   1.97841
