37
Generated by autodE on: 2022-06-01. E = -867.015032 Ha
C     4.18063   1.20608  -0.56289
N     3.01673   0.69515   0.12663
C     2.19605  -0.22371  -0.40342
O     2.42636  -0.82385  -1.46084
C     0.96205  -0.56183   0.46513
C     1.38311  -1.75586   1.33002
N     0.60240   0.57733   1.32726
C    -0.38029   1.41954   0.61017
C    -1.24355   2.16595   1.62386
C     0.33400   2.44030  -0.29007
C    -1.17481   0.41980  -0.28833
F    -1.50994   1.02268  -1.50240
C    -2.46855  -0.21727   0.31776
C    -3.12130  -1.00152  -0.81254
C    -2.34509  -2.07897  -0.97994
C    -1.23102  -1.94481   0.04447
O    -1.90211  -1.25644   1.12632
C    -0.26464  -0.82924  -0.45357
H     4.66609   0.39698  -1.12507
H     4.89555   1.61111   0.16608
H     3.91597   2.00794  -1.27460
H     2.62690   1.19632   0.92297
H     1.64114  -2.61777   0.69906
H     2.26404  -1.49157   1.93260
H     0.57359  -2.04511   2.01510
H     0.14178   0.19718   2.15341
H    -2.04745   2.71824   1.11520
H    -1.69971   1.47778   2.35148
H    -0.62921   2.89000   2.18016
H     1.03099   3.03542   0.31740
H    -0.39756   3.11897  -0.74972
H     0.89875   1.96579  -1.10456
H    -3.10541   0.45135   0.90340
H    -3.98046  -0.67450  -1.39731
H    -2.40810  -2.85998  -1.73812
H    -0.76510  -2.87060   0.39253
H     0.03886  -0.98786  -1.49307
