24
Generated by autodE on: 2022-07-26. E = -460.109128 Ha
C     2.46772   0.77327  -1.58949
N     1.26878   0.54062  -0.81156
C     0.85966  -0.75745  -0.54753
O     1.42179  -1.70432  -1.16588
C    -0.12414  -1.00012   0.46186
C    -0.28674  -2.37890   1.03145
N    -0.82802  -0.00439   1.12527
C    -1.43168   1.08645   0.68834
C    -1.97414   2.04882   1.68951
C    -1.60077   1.33133  -0.76236
H     2.38571   0.29871  -2.57823
H     3.38392   0.37892  -1.10989
H     2.59388   1.85499  -1.73635
H     1.05304   1.24369  -0.11315
H     0.60314  -2.99274   0.83262
H    -0.43597  -2.33251   2.12693
H    -1.15953  -2.92771   0.62612
H    -0.95046  -0.17692   2.13008
H    -3.01557   2.31363   1.44381
H    -1.93222   1.64061   2.71096
H    -1.39677   2.99100   1.67824
H    -1.69288   0.36712  -1.29373
H    -0.73269   1.84135  -1.21606
H    -2.49136   1.95320  -0.93403
