37
Generated by autodE on: 2022-06-01. E = -866.895613 Ha. Imaginary frequency = -212.2 cm-1
C     4.13131   1.30600  -0.73853
N     3.17991   0.77509   0.21586
C     2.43141  -0.33105  -0.06131
O     2.79148  -1.13321  -0.95056
C     1.27903  -0.61026   0.79814
C     1.23805  -1.98460   1.40772
N     0.53037   0.35985   1.40089
C     0.03714   1.52691   0.95577
C    -0.91664   2.24311   1.86093
C     0.67590   2.31210  -0.14076
C    -1.42184   0.32149  -0.77915
F    -1.53562   1.41126  -1.57128
C    -2.62292  -0.11916   0.07143
C    -3.51124  -1.00721  -0.83309
C    -2.78155  -2.10867  -1.04396
C    -1.46353  -1.88040  -0.26670
O    -1.97233  -1.12640   0.86381
C    -0.66958  -0.78535  -1.00650
H     4.82140   0.51891  -1.07325
H     4.71537   2.10371  -0.26146
H     3.63365   1.72391  -1.63289
H     2.84531   1.40337   0.93562
H     1.31985  -2.75092   0.62312
H     2.07569  -2.15562   2.11139
H     0.29922  -2.15751   1.95233
H    -0.02416  -0.01371   2.17112
H    -1.70265   2.73623   1.26736
H    -0.41284   3.03752   2.44423
H    -1.39913   1.55578   2.57291
H    -0.05055   3.03520  -0.53316
H     1.54707   2.88922   0.22161
H     1.01953   1.68171  -0.97200
H    -3.11721   0.64420   0.68236
H    -4.48516  -0.72691  -1.23363
H    -2.99718  -2.97462  -1.66992
H    -0.92268  -2.77508   0.05339
H     0.04906  -0.96830  -1.80149
