60
Generated by autodE on: 2022-06-11. E = -1844.138748 Ha
C     1.20387   2.31033   9.93842
C     1.55265   0.84825   9.91484
O     1.25729   0.14142  10.85531
C     2.42528   0.21117   8.73477
C     2.84486   1.42027   7.86368
C     4.05788   2.21887   8.26389
O     2.15775   1.77175   6.92155
C     3.60369  -0.47699   9.51166
C     4.41439  -1.57916   8.83860
C     5.16153  -1.23991   7.55277
C     4.31008  -0.81025   6.35504
C     3.11223  -1.71727   5.97124
C     2.53731  -1.14666   4.62783
F     3.47564  -1.16659   3.66137
F     1.48438  -1.81850   4.15391
F     2.15341   0.12582   4.77822
C     3.69410  -3.12975   5.65125
F     4.85963  -3.03591   4.99162
F     2.88986  -3.87689   4.87807
F     3.94160  -3.82636   6.77077
C     1.94912  -1.72826   6.98712
C     1.61243  -0.84855   7.97134
C     0.16084  -1.24320   8.40205
C     0.24302  -2.11001   9.60841
N     0.30191  -2.85894  10.49235
C    -0.80847  -0.08729   8.63247
C    -1.78163  -0.15178   9.63857
C    -2.70576   0.88291   9.79509
C    -2.67218   1.99086   8.94231
C    -1.70564   2.05731   7.93587
C    -0.77777   1.02591   7.78269
N    -0.29314  -2.13495   7.30270
C    -1.08762  -1.54137   6.22942
N     0.90301  -2.69243   6.75148
C     1.11499  -4.06078   7.26563
H     1.05247   2.75531   8.95168
H     0.31098   2.44684  10.56190
H     2.04329   2.83535  10.42636
H     4.07489   2.42782   9.34266
H     4.97438   1.65282   8.03744
H     4.06450   3.15730   7.69555
H     3.14236  -0.93157  10.39661
H     4.27082   0.31177   9.88628
H     3.76914  -2.45381   8.67901
H     5.15987  -1.90466   9.58272
H     5.77666  -2.10714   7.26957
H     5.87333  -0.42027   7.74379
H     4.96454  -0.74156   5.47798
H     3.91976   0.19775   6.48404
H    -1.81731  -1.00957  10.31196
H    -3.45505   0.82157  10.58749
H    -3.39453   2.80093   9.06625
H    -1.66433   2.92129   7.26887
H    -0.01015   1.09845   7.01465
H    -0.57953  -0.71861   5.69799
H    -1.30130  -2.34134   5.50844
H    -2.04224  -1.17622   6.62687
H     1.71053  -4.65994   6.57265
H     0.12654  -4.52834   7.33704
H     1.59019  -4.08373   8.26026
