24
Generated by autodE on: 2022-07-27. E = -552.115683 Ha
C     1.85694  -2.79181  -0.83102
N     1.19011  -1.97975  -1.80927
N     0.48281  -0.99454  -1.37904
C     0.05228  -0.08409  -2.46754
C     0.08689  -0.72208  -0.09023
C    -0.15675  -1.78724   0.80135
N    -0.43771  -2.62991   1.56321
C    -0.26016   0.64074   0.35335
C    -1.33497   0.84553   1.24247
C    -1.65259   2.12592   1.69520
C    -0.90935   3.23137   1.26749
C     0.16586   3.04025   0.39355
C     0.49724   1.75953  -0.04992
H     2.67418  -3.31921  -1.34171
H     1.20716  -3.55754  -0.37243
H     2.26641  -2.18081  -0.00302
H     0.88306   0.57351  -2.74982
H    -0.81317   0.50445  -2.15170
H    -0.20936  -0.72115  -3.31911
H    -1.92967  -0.00871   1.57306
H    -2.49233   2.26191   2.38082
H    -1.16178   4.23433   1.61902
H     0.76433   3.89381   0.06631
H     1.36262   1.62496  -0.70062
