60
Generated by autodE on: 2022-06-11. E = -1844.063606 Ha. Imaginary frequency = -313.9 cm-1
C     2.36482  -1.59139  10.95733
C     1.89413  -0.41824  10.14668
O     0.99785   0.31175  10.52358
C     2.58229  -0.18673   8.77602
C     2.36956   1.24895   8.25176
C     2.52888   2.39778   9.20670
O     2.15875   1.44593   7.06834
C     4.13456  -0.35261   8.92981
C     4.98236   0.08664   7.73156
C     4.66188  -0.57927   6.38567
C     4.63434  -2.11458   6.45791
C     3.24809  -2.80166   6.20855
C     2.95589  -2.80527   4.68112
F     4.05620  -3.12974   3.97469
F     2.00822  -3.66888   4.30398
F     2.57963  -1.58118   4.27616
C     3.41335  -4.25742   6.72317
F     4.51176  -4.83292   6.20372
F     2.38829  -5.06679   6.43600
F     3.55192  -4.26143   8.06047
C     2.17491  -2.08418   6.97131
C     2.02799  -1.18533   7.83142
C    -0.46325  -1.05901   7.82899
C    -0.42452  -2.01799   8.89555
N    -0.42941  -2.68381   9.85109
C    -1.16785   0.20296   8.21819
C    -2.15249   0.13765   9.22597
C    -2.81801   1.28295   9.66049
C    -2.50870   2.52835   9.10723
C    -1.53105   2.61017   8.11247
C    -0.86745   1.46465   7.67124
N    -0.34368  -1.49389   6.53675
C    -0.35353  -0.51148   5.44839
N     0.29425  -2.59998   6.20960
C    -0.11123  -3.84032   6.87475
H     3.31206  -1.32227  11.45344
H     2.56286  -2.46488  10.32038
H     1.61575  -1.83259  11.72076
H     3.15511   2.15413  10.07458
H     2.93463   3.26141   8.66232
H     1.52662   2.66139   9.58038
H     4.45114   0.22199   9.81390
H     4.32410  -1.40926   9.15952
H     6.03100  -0.13106   7.99608
H     4.92486   1.18019   7.60910
H     3.71357  -0.18903   5.99853
H     5.43136  -0.27102   5.66179
H     5.34980  -2.54905   5.75128
H     4.96296  -2.43902   7.45325
H    -2.40552  -0.82298   9.67611
H    -3.58080   1.19895  10.43780
H    -3.02228   3.42866   9.45202
H    -1.26942   3.57730   7.67739
H    -0.08908   1.57194   6.92474
H     0.55803   0.10109   5.48888
H    -1.23827   0.13001   5.52413
H    -0.38226  -1.07560   4.51266
H     0.02525  -4.65282   6.14880
H    -1.17978  -3.79330   7.13520
H     0.45294  -4.09998   7.77874
