17
Generated by autodE on: 2022-06-01. E = -526.683739 Ha
C    -3.79730   0.34562  -0.42626
N    -2.36691   0.58224  -0.38100
C    -1.51064  -0.38138  -0.00932
O    -1.86996  -1.52634   0.31605
C    -0.06635  -0.05152   0.01010
C     0.44992   1.20767  -0.34264
N     0.81128   2.27603  -0.64803
N     0.70139  -1.08695   0.40033
C     1.99694  -1.28074   0.57077
C     2.97274  -0.29058   0.34406
N     3.82516   0.48838   0.17357
H    -4.29545   1.26351  -0.75975
H    -4.18764   0.06997   0.56613
H    -4.04415  -0.46730  -1.12700
H    -2.01195   1.50009  -0.63038
H     0.08689  -1.89689   0.60330
H     2.30975  -2.26945   0.90720
