17
Generated by autodE on: 2022-07-27. E = -526.684039 Ha
C     0.43515   3.37654   1.86846
N     0.03468   2.45358   0.82562
C     0.26891   1.13044   0.87708
O     0.84838   0.55457   1.81359
C    -0.19888   0.32043  -0.26980
C    -0.87044   0.82269  -1.39735
N    -1.42816   1.25234  -2.32981
N     0.07839  -0.99303  -0.15662
C    -0.17331  -2.00523  -0.96703
C     0.22322  -3.30995  -0.61898
N     0.54027  -4.40226  -0.35517
H     0.95030   2.81969   2.65915
H    -0.44084   3.88286   2.30322
H     1.11792   4.14369   1.47125
H    -0.44926   2.83265   0.01663
H     0.57386  -1.17381   0.73510
H    -0.69371  -1.82285  -1.90938
