40
Generated by autodE on: 2022-06-01. E = -1379.524968 Ha. Imaginary frequency = -257.2 cm-1
C     2.11553   3.92098   1.64306
N     1.90122   3.01602   0.52874
C     2.15512   1.70117   0.63363
O     2.73432   1.17799   1.59308
C     1.64143   0.82985  -0.46142
C     1.15935   1.35900  -1.68499
N     0.76292   1.82474  -2.67636
N     2.01887  -0.46508  -0.39271
C     1.37221  -1.44184  -1.05567
C     1.76044  -2.79122  -0.83360
N     2.02825  -3.90626  -0.63561
C    -0.65894  -1.13949  -0.04603
C    -1.53678  -1.66058  -1.14143
F    -1.32951  -2.98786  -1.31291
F    -1.33218  -1.08694  -2.33834
F    -2.84625  -1.51905  -0.84685
C    -0.44464  -2.01821   1.22547
C    -1.66568  -1.80949   2.13762
C    -1.54420  -0.55994   2.59904
C    -0.25551  -0.02618   1.95284
O     0.54004  -1.21794   1.88728
C    -0.60534   0.16740   0.44587
C    -1.31606   1.36292  -0.06370
O    -1.94128   1.36889  -1.12998
N    -1.23582   2.46474   0.72235
C    -1.69017   3.75537   0.24242
H     3.11650   3.76998   2.06939
H     1.36979   3.75925   2.44000
H     2.03169   4.95324   1.28272
H     1.33442   3.34784  -0.24681
H     2.47903  -0.69340   0.49747
H     0.96324  -1.20319  -2.03897
H    -0.10514  -3.04483   1.06308
H    -2.45998  -2.53807   2.29380
H    -2.21598   0.02244   3.22807
H     0.27884   0.78043   2.46322
H    -0.59882   2.46110   1.51057
H    -1.18266   4.03331  -0.69663
H    -2.77397   3.74906   0.05217
H    -1.46889   4.51221   1.00479
