28
Generated by autodE on: 2022-05-31. E = -704.635060 Ha
N    -2.60871   2.77237   0.54005
C    -1.52843   2.70523   0.07301
N    -0.34838   2.82863  -0.48126
N     0.51865   1.79961  -0.42219
C     0.37975   0.51192  -0.16736
C    -0.94302  -0.13359  -0.11313
C    -1.25523  -1.01054   0.94134
C    -2.48935  -1.65844   0.97226
C    -3.41425  -1.45682  -0.05834
C    -3.10277  -0.60036  -1.11893
C    -1.87780   0.06528  -1.14604
C     1.60776  -0.27635   0.01984
C     1.63557  -1.63246  -0.36405
C     2.80145  -2.38227  -0.21947
C     3.95517  -1.79713   0.31405
C     3.93541  -0.45543   0.70818
C     2.77135   0.29984   0.56948
H     1.47122   2.11671  -0.61770
H    -0.52924  -1.17297   1.73994
H    -2.72979  -2.32678   1.80192
H    -4.37785  -1.97091  -0.03608
H    -3.81859  -0.44784  -1.92953
H    -1.63689   0.73124  -1.97647
H     0.74425  -2.09148  -0.79350
H     2.81134  -3.42949  -0.52935
H     4.86609  -2.38863   0.43022
H     4.82660   0.00228   1.14301
H     2.75881   1.33349   0.92202
