28
Generated by autodE on: 2022-07-27. E = -704.635066 Ha
N    -0.63591  -2.44256  -2.90394
C    -1.08906  -1.41475  -2.54620
N    -1.71447  -0.28901  -2.30901
N    -1.24321   0.54014  -1.35812
C    -0.41111   0.37906  -0.34648
C     0.03325   1.59087   0.35944
C     0.17739   2.82045  -0.31523
C     0.56988   3.96439   0.37937
C     0.83582   3.89906   1.75077
C     0.70873   2.68039   2.42664
C     0.31418   1.53383   1.73963
C     0.02960  -0.95406   0.09745
C     1.38932  -1.19192   0.36798
C     1.80387  -2.43949   0.83217
C     0.86551  -3.45386   1.05316
C    -0.49006  -3.21804   0.80376
C    -0.90884  -1.97854   0.32138
H    -1.63041   1.47992  -1.47168
H     0.01471   2.87991  -1.39375
H     0.68536   4.90829  -0.15775
H     1.14968   4.79506   2.29101
H     0.91468   2.62370   3.49775
H     0.20397   0.59001   2.27514
H     2.11844  -0.39655   0.20367
H     2.86324  -2.62063   1.02653
H     1.19150  -4.42851   1.42348
H    -1.22619  -4.00449   0.98358
H    -1.96797  -1.79667   0.13061
