46
Generated by autodE on: 2022-06-29. E = -6237.097376 Ha
C    -1.96242  -4.08402  -0.82547
C    -1.74959  -2.65592  -1.23041
O    -1.87598  -2.24844  -2.36757
C    -1.43268  -1.69243  -0.11211
N    -2.21009  -1.73351   0.94661
N    -1.78846  -0.70142   1.73256
C    -2.29086  -0.63709   2.97726
N    -2.72525  -0.65817   4.05451
C    -0.72611   0.01385   1.17697
C    -0.43652  -0.64997  -0.01246
C     0.74224  -0.49981  -0.93453
Br    0.14238   0.35187  -2.64303
Br    1.41088  -2.34934  -1.38790
C     1.96155   0.28685  -0.46753
C     2.71539  -0.19027   0.78527
C     1.93573  -0.59169   2.04135
C     1.10443   0.47497   2.76337
C    -0.05415   1.12873   1.95430
C    -1.07815   1.87161   2.87863
C    -0.58281   2.41599   4.18354
O    -2.22372   2.03725   2.50116
C     0.32885   2.33398   1.06685
C    -0.51863   2.70901   0.01183
C    -0.22446   3.82041  -0.77722
C     0.91036   4.59214  -0.51096
C     1.73839   4.24839   0.56053
C     1.44646   3.13264   1.34956
H    -2.20454  -4.69337  -1.70555
H    -2.78047  -4.13613  -0.08913
H    -1.05934  -4.46986  -0.32614
H     1.64084   1.32488  -0.35554
H     2.67216   0.29134  -1.30525
H     3.41763   0.62135   1.03851
H     3.33658  -1.05388   0.50156
H     2.67578  -0.95109   2.77425
H     1.30459  -1.46712   1.82203
H     1.76261   1.25622   3.16186
H     0.64640  -0.01305   3.63659
H     0.40682   2.88250   4.08690
H    -1.31225   3.13607   4.57491
H    -0.48493   1.58012   4.89546
H    -1.41029   2.12032  -0.20485
H    -0.88420   4.08004  -1.60791
H     1.14403   5.46060  -1.13098
H     2.62234   4.84872   0.78705
H     2.11350   2.88301   2.17334
