11
Generated by autodE on: 2022-06-29. E = -393.762406 Ha
C    -3.12209  -0.41666   0.04409
C    -1.94216   0.23220  -0.60069
O    -1.96314   0.97853  -1.55924
C    -0.64199  -0.08354   0.00561
N     0.41805  -0.29217   0.44086
N     1.49306  -0.61672   1.02722
C     2.63282  -0.11790   0.56186
N     3.70163   0.24808   0.25788
H    -3.17126  -0.12455   1.10603
H    -4.03770  -0.11442  -0.48059
H    -3.00288  -1.51230   0.01077
