46
Generated by autodE on: 2022-06-29. E = -6236.943334 Ha. Imaginary frequency = -228.3 cm-1
C    -1.96457  -4.40096  -0.95653
C    -2.08275  -2.92226  -1.15167
O    -2.39503  -2.35803  -2.17640
C    -1.81555  -2.10600   0.05907
N    -2.15290  -1.80518   1.15785
N    -2.26669  -0.91185   2.04908
C    -2.01169  -1.19070   3.31978
N    -1.81090  -1.26911   4.46963
C    -0.54969   0.55747   0.78877
C    -0.29443  -0.18675  -0.15791
C     0.78115  -0.48287  -1.08933
Br    0.24246   0.02344  -2.94092
Br    1.24716  -2.43682  -1.11683
C     2.02317   0.32907  -0.69302
C     2.66719   0.01367   0.67702
C     1.82332  -0.31728   1.92591
C     0.97723   0.74602   2.65180
C    -0.10303   1.50790   1.82111
C    -1.23835   2.07332   2.70709
C    -0.84683   2.63579   4.04318
O    -2.38493   2.09303   2.30241
C     0.43116   2.75822   1.07029
C    -0.36895   3.32431   0.06357
C     0.06137   4.44546  -0.64537
C     1.30160   5.02483  -0.35613
C     2.09648   4.47657   0.65215
C     1.66439   3.35243   1.36486
H    -2.00265  -4.90138  -1.93302
H    -2.80944  -4.73680  -0.33114
H    -1.03841  -4.65437  -0.42036
H     1.70227   1.38006  -0.73434
H     2.78958   0.20021  -1.47131
H     3.33338   0.86347   0.89858
H     3.32828  -0.85475   0.53006
H     2.54184  -0.67522   2.68154
H     1.18545  -1.18704   1.71008
H     1.62467   1.47958   3.14723
H     0.45319   0.21664   3.45979
H     0.11162   3.17136   3.99307
H    -1.64165   3.29625   4.41307
H    -0.72226   1.79992   4.75118
H    -1.33636   2.87609  -0.17001
H    -0.57337   4.86599  -1.42876
H     1.64411   5.89988  -0.91322
H     3.06578   4.92090   0.88990
H     2.30963   2.94661   2.14220
