51
Generated by autodE on: 2022-06-04. E = -1507.270478 Ha
C    -4.52892  -3.09136  -0.57372
O    -3.60311  -2.19341   0.06214
C    -2.35515  -2.20630  -0.37757
O    -1.90874  -2.98269  -1.19237
C    -1.47304  -1.15052   0.30512
C    -2.21931  -0.51172   1.49650
O    -2.15602  -0.92513   2.63128
O    -2.92082   0.55228   1.12382
C    -3.65117   1.24257   2.15049
N    -0.24545  -1.79157   0.77791
C     0.82249  -0.80665   0.60530
C     1.00305  -0.07084   1.94590
O     0.47817   0.99132   2.20254
O     1.71851  -0.78510   2.80057
C     1.85292  -0.26202   4.13503
C     2.11126  -1.48709   0.14264
O     2.13310  -2.59050  -0.35584
O     3.15582  -0.69067   0.28983
C     4.41275  -1.14115  -0.24709
C     0.31506   0.16238  -0.47854
C     1.22162   1.12174  -1.14484
C     1.91268   0.72655  -2.30163
C     2.79745   1.60817  -2.92531
C     3.00166   2.88728  -2.39754
C     2.31948   3.28063  -1.24228
C     1.43395   2.40207  -0.61338
C    -0.99574  -0.07115  -0.67508
C    -1.92826   0.52976  -1.66178
C    -1.55107   1.78915  -2.38407
O    -2.99259  -0.03981  -1.87723
H    -4.18895  -4.13045  -0.46475
H    -4.61799  -2.83657  -1.63940
H    -5.48715  -2.94466  -0.06360
H    -2.95832   1.61409   2.91870
H    -4.15377   2.07833   1.65130
H    -4.38924   0.57010   2.61006
H    -0.03111  -2.57068   0.14943
H     0.86240  -0.17360   4.60306
H     2.47182  -0.98411   4.67870
H     2.34193   0.72167   4.10914
H     4.31722  -1.31299  -1.32821
H     5.12701  -0.33487  -0.04910
H     4.72703  -2.06706   0.25397
H     1.75360  -0.27571  -2.70535
H     3.32954   1.29407  -3.82612
H     3.69396   3.57680  -2.88608
H     2.47623   4.27844  -0.82615
H     0.90286   2.70203   0.29047
H    -0.68088   1.60349  -3.03233
H    -2.40013   2.12305  -2.99406
H    -1.25655   2.57260  -1.67065
