19
Generated by autodE on: 2022-06-04. E = -461.261364 Ha
C     3.96878   0.71088  -0.06852
C     3.10722  -0.50656  -0.25951
O     3.56600  -1.61829  -0.49895
C     1.67913  -0.30059  -0.14406
C     0.47794  -0.11038  -0.04479
C    -0.92540   0.10706   0.06973
C    -1.42501   1.40368   0.31885
C    -2.79830   1.61164   0.42890
C    -3.68546   0.53749   0.29370
C    -3.19767  -0.75109   0.04721
C    -1.82646  -0.97118  -0.06548
H     3.68856   1.48487  -0.80156
H     3.79256   1.13647   0.93301
H     5.02749   0.44344  -0.18502
H    -0.72685   2.23612   0.42308
H    -3.18037   2.61655   0.62102
H    -4.76134   0.70543   0.38096
H    -3.89123  -1.58816  -0.05774
H    -1.43859  -1.97305  -0.25785
