32
Generated by autodE on: 2022-06-04. E = -1045.929736 Ha
C     4.45515   2.02622  -0.75793
O     3.46292   1.00372  -0.58243
C     2.21360   1.41484  -0.39071
O     1.88877   2.59622  -0.35274
C     1.22574   0.34007  -0.19844
N     0.00644   0.83350   0.07759
C    -1.20357   0.32356   0.23850
C    -2.22236   1.32315   0.60790
O    -1.94344   2.49068   0.83430
O    -3.45398   0.82363   0.63798
C    -4.51328   1.73339   0.97482
C    -1.53912  -1.06332  -0.18668
O    -1.22408  -1.50029  -1.27565
O    -2.25113  -1.72357   0.71547
C    -2.65232  -3.05887   0.36351
C     1.49143  -1.09757  -0.05340
O     0.80012  -1.83061   0.63914
O     2.55784  -1.52464  -0.72584
C     2.90755  -2.90742  -0.56064
H     4.21761   2.64569  -1.63464
H     5.40312   1.49819  -0.91126
H     4.51325   2.66313   0.13635
H     0.02558   1.86616   0.18153
H    -5.43354   1.13904   0.95984
H    -4.34795   2.15766   1.97544
H    -4.56910   2.54471   0.23498
H    -3.22036  -3.43691   1.22068
H    -3.28183  -3.04427  -0.53748
H    -1.76477  -3.68223   0.18526
H     3.12570  -3.12611   0.49451
H     3.80172  -3.06462  -1.17432
H     2.08763  -3.55278  -0.90686
