32
Generated by autodE on: 2022-07-27. E = -1045.929684 Ha
C    -3.79036  -2.66120  -1.69391
O    -3.05190  -1.62483  -1.02749
C    -1.72622  -1.71188  -1.06937
O    -1.10770  -2.59628  -1.64121
C    -1.05396  -0.60046  -0.37095
N     0.26043  -0.60166  -0.51465
C     1.27834   0.14324  -0.04801
C     1.07820   1.02449   1.10883
O     0.14263   0.89389   1.88569
O     2.01395   1.96136   1.24982
C     1.90837   2.80229   2.40866
C     2.55745  -0.24358  -0.66683
O     2.61280  -1.10866  -1.53387
O     3.62467   0.39787  -0.20294
C     4.89051   0.03573  -0.77504
C    -1.78704   0.56396   0.19852
O    -1.57808   1.70222  -0.17065
O    -2.70933   0.21260   1.08310
C    -3.49440   1.27720   1.64714
H    -3.55043  -2.67138  -2.76670
H    -3.55426  -3.64058  -1.25384
H    -4.84811  -2.41956  -1.54156
H     0.59554  -1.35346  -1.14720
H     1.95736   2.20046   3.32743
H     2.76093   3.48896   2.35783
H     0.96347   3.36402   2.38892
H     4.89096   0.22488  -1.85812
H     5.10756  -1.02573  -0.58795
H     5.63404   0.66924  -0.27822
H    -4.04347   1.80765   0.85630
H    -4.19268   0.79890   2.34279
H    -2.84160   1.98190   2.18137
