51
Generated by autodE on: 2022-06-04. E = -1507.182654 Ha. Imaginary frequency = -287.3 cm-1
C    -3.82013  -3.67767  -1.35525
O    -3.14457  -2.73935  -0.50181
C    -1.82566  -2.82995  -0.43331
O    -1.15263  -3.70194  -0.94735
C    -1.22334  -1.71463   0.37362
C    -2.21834  -0.93492   1.21074
O    -2.88827  -0.01094   0.80949
O    -2.37231  -1.52614   2.39265
C    -3.30038  -0.90733   3.29846
N     0.03020  -2.01301   0.75936
C     1.04092  -1.17850   1.10639
C     0.77194   0.03428   1.88851
O    -0.34989   0.35424   2.25706
O     1.84716   0.77812   2.13867
C     1.62831   2.00739   2.84460
C     2.36020  -1.78072   0.79931
O     2.44618  -2.88328   0.27361
O     3.40806  -1.02095   1.07804
C     4.69824  -1.53548   0.71361
C     0.50384   0.20311  -0.95786
C     1.74914   0.87896  -1.10071
C     2.84458   0.24113  -1.72317
C     4.06246   0.90501  -1.84375
C     4.21265   2.20211  -1.33770
C     3.13215   2.84015  -0.71827
C     1.90491   2.19024  -0.60177
C    -0.67408  -0.20245  -1.08975
C    -1.82710  -0.05552  -1.99313
C    -2.35142   1.34466  -2.14641
O    -2.28743  -1.01127  -2.59859
H    -3.45987  -3.56616  -2.38724
H    -4.88453  -3.42699  -1.29144
H    -3.64493  -4.70465  -1.00589
H    -3.28837  -1.52033   4.20663
H    -4.30889  -0.88907   2.86180
H    -2.97526   0.11832   3.52428
H     0.39797  -2.84121   0.26457
H     1.28676   1.80257   3.86961
H     2.59851   2.51646   2.86088
H     0.88218   2.62502   2.32662
H     5.41031  -0.73362   0.93739
H     4.92997  -2.43148   1.30713
H     4.72653  -1.78315  -0.35581
H     2.72793  -0.77914  -2.09276
H     4.90487   0.40427  -2.32574
H     5.17284   2.71520  -1.42621
H     3.24635   3.85197  -0.32304
H     1.05995   2.68158  -0.11735
H    -3.21995   1.35138  -2.81850
H    -2.62621   1.74359  -1.15895
H    -1.55288   1.98805  -2.55061
