23
Generated by autodE on: 2022-10-22. E = -650.083597 Ha
C     3.55723   0.80942  -0.51649
O     2.19793   0.81532  -0.06899
C     1.50976  -0.33114  -0.21144
O     2.03857  -1.35922  -0.62236
C     0.12069  -0.27819   0.19856
C    -0.86192   0.66020   0.33066
O    -1.01145   1.95525   0.14513
C     0.04269   2.76010  -0.40189
C    -2.14478  -0.13044   0.68242
C    -2.55389  -0.87747  -0.60440
C    -1.61406  -1.81615  -0.75474
C    -0.65019  -1.60758   0.43132
O    -1.57705  -1.19303   1.45412
H     3.93616   1.82395  -0.34442
H     3.61547   0.56197  -1.58683
H     4.15333   0.08277   0.05498
H    -0.40334   3.74368  -0.59213
H     0.40652   2.31905  -1.34035
H     0.86876   2.84704   0.31445
H    -2.91220   0.43738   1.21938
H    -3.39507  -0.61299  -1.24365
H    -1.47594  -2.54272  -1.55488
H    -0.03715  -2.45893   0.74284
