46
Generated by autodE on: 2022-10-22. E = -1222.124193 Ha. Imaginary frequency = -232.9 cm-1
C    -2.63758   2.34781   2.03466
N    -1.53908   2.10243   1.11973
C    -1.74744   2.15668  -0.21603
O    -2.79927   2.57406  -0.72229
C    -0.64966   1.70006  -1.09769
N     0.51663   1.33972  -0.67499
C     1.31087   0.54427  -0.19173
C     2.62732   0.70284   0.39400
C     3.02101   1.95437   0.91469
C     4.27405   2.09801   1.50399
C     5.14843   1.00532   1.56798
C     4.76505  -0.23577   1.04957
C     3.50554  -0.39472   0.47198
C     0.26039  -1.38865  -0.17992
O     1.16389  -2.13959  -0.84442
C     1.32535  -2.00224  -2.25457
C     0.26334  -1.63281   1.35755
C    -0.57756  -2.89389   1.61280
C    -1.83631  -2.51676   1.35989
C    -1.73716  -1.04047   0.93720
O    -0.63933  -0.60378   1.77447
C    -1.07311  -1.02938  -0.45980
C    -1.82320  -0.85588  -1.66969
O    -1.42774  -0.86706  -2.83624
O    -3.14776  -0.64842  -1.38879
C    -3.97751  -0.26599  -2.48260
H    -2.26477   2.27900   3.06415
H    -3.05379   3.35323   1.87711
H    -3.45665   1.61920   1.90469
H    -0.80437   1.47628   1.44795
H    -0.80723   1.82716  -2.17176
H     2.33167   2.79917   0.85987
H     4.57477   3.06529   1.91231
H     6.13282   1.12354   2.02669
H     5.44909  -1.08544   1.10019
H     3.19159  -1.35847   0.07227
H     1.48371  -0.94599  -2.52305
H     0.44883  -2.38512  -2.79157
H     2.21776  -2.58514  -2.51655
H     1.24083  -1.56310   1.84426
H    -0.17756  -3.87221   1.87603
H    -2.75136  -3.10869   1.35423
H    -2.62424  -0.41737   1.06803
H    -3.64780   0.69602  -2.90426
H    -3.97425  -1.02820  -3.27602
H    -4.99050  -0.15964  -2.07424
