19
Generated by autodE on: 2022-07-26. E = -440.403527 Ha
C     0.18544   2.50724  -0.04143
C     0.36946   1.12465   0.48603
N     1.04601   1.00944   1.60392
O     1.53534   1.97560   2.29146
C    -0.13880  -0.08411  -0.17754
C    -0.28786  -0.10414  -1.57872
C    -0.74006  -1.25207  -2.23034
C    -1.05833  -2.40055  -1.49892
C    -0.92721  -2.38946  -0.10608
C    -0.47967  -1.24350   0.55088
H    -0.18841   3.15912   0.76465
H    -0.51586   2.53272  -0.88287
H     1.15162   2.93323  -0.36334
H     1.21109   0.05707   1.96234
H    -0.02916   0.77939  -2.16472
H    -0.84065  -1.24953  -3.31816
H    -1.41523  -3.29738  -2.01035
H    -1.19096  -3.27526   0.47636
H    -0.42291  -1.24533   1.64187
