23
Generated by autodE on: 2022-06-11. E = -554.981412 Ha
C     3.70504   0.59670   0.40094
N     2.27248   0.67850   0.21214
C     1.49988  -0.37977  -0.13865
O     1.97533  -1.51096  -0.33712
C     0.05942  -0.09370  -0.25780
C    -0.97037  -0.96503  -0.30394
C    -1.05116  -2.44436  -0.26944
C    -2.23445  -0.06830  -0.28094
C    -2.32052   0.54646   1.13315
C    -1.30640   1.41559   1.18634
C    -0.62013   1.30467  -0.19327
O    -1.76080   1.06212  -1.03452
H     4.23575   1.27601  -0.28529
H     4.02897  -0.43097   0.20059
H     3.98611   0.86132   1.43293
H     1.82763   1.57542   0.37097
H    -1.57109  -2.82094  -1.16754
H    -0.06161  -2.91022  -0.20490
H    -1.66300  -2.75971   0.59471
H    -3.14711  -0.50239  -0.70435
H    -3.03236   0.25325   1.90390
H    -0.95907   2.03462   2.01297
H    -0.03632   2.16501  -0.53878
