42
Generated by autodE on: 2022-06-11. E = -995.368787 Ha. Imaginary frequency = -379.7 cm-1
C     4.39822  -1.12304  -3.07356
N     3.85370  -0.81555  -1.76615
C     2.55510  -0.48607  -1.59871
O     1.75927  -0.44714  -2.55432
C     2.08395  -0.17174  -0.24035
C     2.66148   0.42773   0.82326
C     4.02720   0.94531   1.08710
C     1.48438   0.67777   1.79661
O     0.65846  -0.46756   1.52131
C     0.57992  -0.24233   0.10077
C     0.02737   1.19836   0.07376
C     0.63348   1.79664   1.16968
O    -0.96500   1.80242   2.61886
N    -1.70487   0.88670   2.07103
C    -2.08443   1.02732   0.78426
C    -2.53268   2.39145   0.33644
C    -2.65379  -0.17114   0.11961
C    -2.69320  -0.23309  -1.28603
C    -3.17632  -1.36822  -1.93744
C    -3.63674  -2.46395  -1.19964
C    -3.61335  -2.41008   0.19673
C    -3.13015  -1.27501   0.85143
H     4.24280  -0.28840  -3.77480
H     3.92600  -2.01943  -3.50840
H     5.47533  -1.30573  -2.97560
H     4.44755  -0.90427  -0.94987
H     4.49140   0.40515   1.93040
H     3.96877   2.00493   1.39118
H     4.69063   0.86933   0.21540
H     1.73383   0.76436   2.85977
H    -0.00266  -1.01800  -0.40621
H    -0.23322   1.69870  -0.85742
H     0.84386   2.85433   1.31438
H    -1.45441  -0.06944   2.34373
H    -1.93877   3.17630   0.81817
H    -3.59232   2.53078   0.61507
H    -2.45620   2.50271  -0.75190
H    -2.31899   0.60528  -1.87549
H    -3.18924  -1.39832  -3.02948
H    -4.01580  -3.35208  -1.71041
H    -3.98288  -3.25338   0.78491
H    -3.14713  -1.24559   1.94243
