26
Generated by autodE on: 2022-06-06. E = -665.577271 Ha
C     5.05271  -0.55803  -0.51580
N     3.87558   0.27512  -0.39549
C     2.62268  -0.21728  -0.25933
O     2.37039  -1.44121  -0.22035
C     1.52587   0.74245  -0.15475
C     1.66111   2.13305  -0.18998
N     1.78459   3.29884  -0.22130
N     0.28637   0.15424  -0.02037
C    -0.90514   0.67430   0.10815
C    -2.12259  -0.10022   0.22257
C    -2.16146  -1.51149   0.15699
C    -3.37308  -2.18627   0.27776
C    -4.56724  -1.47646   0.46327
C    -4.54158  -0.07947   0.52593
C    -3.33255   0.60350   0.40614
H     5.77193  -0.35113   0.29293
H     4.75061  -1.60983  -0.45430
H     5.56256  -0.39511  -1.47927
H     3.99960   1.28220  -0.42026
H     0.39862  -0.87126  -0.02975
H    -0.97121   1.76483   0.12878
H    -1.24736  -2.09089   0.00487
H    -3.38915  -3.27712   0.22442
H    -5.51392  -2.01322   0.55642
H    -5.46848   0.48048   0.66869
H    -3.31041   1.69473   0.45509
