55
Generated by autodE on: 2022-06-06. E = -1830.001333 Ha. Imaginary frequency = -326.9 cm-1
C    -3.84864  -0.52153  -1.18304
N    -4.92683  -1.27952  -0.57660
C    -4.71708  -2.46312   0.00698
O    -3.64451  -3.07188  -0.03188
C    -5.91530  -3.16193   0.69180
Cl   -7.23811  -1.93129   1.12705
C    -6.59798  -4.14528  -0.29284
C    -5.75459  -5.32997  -0.79164
C    -5.91813  -6.67217  -0.06169
C    -5.03293  -6.97787   1.14755
C    -5.47205  -6.38146   2.53498
C    -6.87946  -6.74547   2.81215
N    -7.98880  -7.03625   2.97828
C    -4.62592  -7.03779   3.55822
N    -3.93571  -7.56280   4.32658
C    -5.34591  -4.89395   2.56788
C    -5.49404  -3.84060   1.92166
C    -4.67485  -2.16913   3.53492
C    -5.76473  -1.33138   3.90365
N    -6.62599  -0.63321   4.26160
C    -3.59273  -1.47387   2.78565
O    -3.76154  -0.32160   2.36738
N    -2.43445  -2.16120   2.61513
C    -1.35234  -1.60000   1.82589
N    -4.32568  -3.20068   4.37635
C    -5.03942  -4.27949   4.73273
C    -6.45815  -4.42982   5.09621
C    -6.71499  -5.40707   6.08226
C    -8.01728  -5.70306   6.48161
C    -9.09472  -5.03417   5.89552
C    -8.85641  -4.07451   4.90493
C    -7.55754  -3.77732   4.50033
H    -3.18127  -1.19469  -1.73670
H    -4.27290   0.21452  -1.87767
H    -3.25988   0.00797  -0.41650
H    -5.80585  -0.80660  -0.39276
H    -6.92134  -3.53694  -1.14996
H    -7.50741  -4.51483   0.20405
H    -6.06802  -5.50300  -1.83239
H    -4.69114  -5.05383  -0.84286
H    -6.97852  -6.83263   0.19690
H    -5.67293  -7.46196  -0.78885
H    -4.00211  -6.63166   0.98173
H    -4.99833  -8.06792   1.29098
H    -2.49599  -3.17564   2.61414
H    -0.43258  -2.16424   2.02888
H    -1.56812  -1.64764   0.74649
H    -1.19336  -0.55066   2.10583
H    -3.32190  -3.37652   4.41482
H    -4.39971  -5.01877   5.21703
H    -5.87524  -5.94043   6.53247
H    -8.18958  -6.46254   7.24725
H   -10.11795  -5.26708   6.19881
H    -9.69393  -3.56269   4.42591
H    -7.41871  -3.07160   3.68795
