34
Generated by autodE on: 2022-06-09. E = -894.603455 Ha. Imaginary frequency = -360.1 cm-1
C    -2.44478   0.42243  -2.27642
C    -2.28929   1.00815  -0.89099
O    -2.36055   2.21959  -0.71695
C    -2.01229   0.08414   0.23943
C    -2.41466   0.48947   1.61276
C    -3.04661  -0.53988   2.52567
O    -2.29178   1.64628   1.99769
N    -1.82460  -1.23554  -0.06979
N    -1.13664  -2.07644   0.65730
C     0.69558  -0.95824   0.87361
C     1.42586  -1.36871  -0.41699
O     0.66792  -0.63437  -1.38951
C     0.83901   0.65468  -0.77436
C     2.37776   0.72542  -0.67221
C     3.15712   1.98057  -0.70969
C     2.75058  -0.55863  -0.46248
C     4.04178  -1.06699  -0.22054
N     5.10503  -1.50555  -0.02253
C     0.32452   0.36072   0.64724
H    -2.72941   1.22949  -2.96262
H    -3.21023  -0.36935  -2.30225
H    -1.49209  -0.01422  -2.61683
H    -3.83839  -0.03512   3.09738
H    -2.29694  -0.88930   3.25581
H    -3.46131  -1.40869   1.99806
H    -1.77539  -1.45506  -1.06493
H    -1.25789  -1.83318   1.64201
H     0.91982  -1.39944   1.84417
H     1.48740  -2.43486  -0.65304
H     0.36082   1.45822  -1.34338
H     2.80484   2.65759   0.08851
H     4.23379   1.80440  -0.57885
H     2.98721   2.50960  -1.66270
H     0.15353   1.13700   1.38974
