12
Generated by autodE on: 2022-10-21. E = -469.079206 Ha
C     2.87431  -0.66636   0.41062
O     1.45627  -0.79336   0.20696
C     0.76043   0.33705   0.10990
O     1.21955   1.45857   0.17784
C    -0.67724   0.08071  -0.09668
C    -1.60557   1.13750  -0.23088
N    -2.34965   2.02700  -0.33807
N    -1.11268  -1.16854  -0.15926
N    -1.44942  -2.24022  -0.20713
H     3.25986  -1.69045   0.46489
H     3.07827  -0.13051   1.34837
H     3.33336  -0.12901  -0.43121
