31
Generated by autodE on: 2022-10-21. E = -618.602866 Ha
C    -2.09677   2.83935   0.49178
O    -0.99224   1.97067   0.25141
C    -1.14859   0.64808   0.47874
C    -0.17366  -0.29923   0.35509
C     1.22087  -0.15293  -0.05187
C     1.97048  -1.28255  -0.45376
C     3.30427  -1.16568  -0.84948
C     3.93724   0.08113  -0.85295
C     3.21290   1.21125  -0.45466
C     1.87930   1.10059  -0.06256
C    -0.90701  -1.63747   0.47638
C    -1.73756  -1.81884  -0.83302
C    -2.82037  -0.70677  -0.70614
C    -2.48402  -0.04867   0.67470
C    -2.02242  -1.27880   1.47543
H    -1.74334   3.85464   0.27011
H    -2.42231   2.79133   1.54317
H    -2.94665   2.60181  -0.16705
H     1.49939  -2.26658  -0.46280
H     3.85345  -2.05909  -1.15811
H     4.98153   0.17220  -1.16083
H     3.69382   2.19305  -0.44804
H     1.33442   1.99150   0.24642
H    -0.27700  -2.49719   0.73546
H    -1.10859  -1.70643  -1.72774
H    -2.19644  -2.81899  -0.86739
H    -2.78395   0.02873  -1.52250
H    -3.83540  -1.13108  -0.68050
H    -3.29234   0.55743   1.09810
H    -1.64170  -1.02376   2.47524
H    -2.80146  -2.05294   1.55741
