43
Generated by autodE on: 2022-10-21. E = -1087.661613 Ha. Imaginary frequency = -394.1 cm-1
C     3.69298  -0.00156   1.43484
O     2.56911  -0.76565   0.96838
C     2.24488  -0.63016  -0.31823
O     2.80835   0.11096  -1.10337
C     1.07171  -1.43017  -0.68788
C     0.86415  -1.71096  -2.05588
N     0.67442  -1.89291  -3.19221
N     0.54610  -2.30611   0.24277
N    -0.41429  -2.32908   0.90869
C    -1.47929  -0.63427   0.77729
O    -1.40804  -0.27108   2.08646
C    -2.20202  -1.00145   3.02172
C    -2.78231  -1.13939   0.16062
C    -3.67323   0.12543  -0.02262
C    -2.95841   0.88821  -1.17561
C    -1.70644  -0.00522  -1.46389
C    -2.32846  -1.40115  -1.27925
C    -0.83128   0.15142  -0.22838
C     0.00746   1.32936  -0.01150
C     0.28125   2.19856  -1.09224
C     1.08464   3.32498  -0.92592
C     1.64471   3.61518   0.32246
C     1.39290   2.76084   1.40081
C     0.58895   1.63278   1.24101
H     3.53783   1.06795   1.24079
H     4.61211  -0.34062   0.93572
H     3.75454  -0.18891   2.51269
H    -2.01790  -2.08282   2.94799
H    -3.27456  -0.79948   2.87616
H    -1.90210  -0.65014   4.01741
H    -3.25491  -1.96928   0.69769
H    -4.69390  -0.17222  -0.30282
H    -3.73498   0.71374   0.90369
H    -3.58606   0.93559  -2.07771
H    -2.67674   1.91458  -0.90480
H    -1.21911   0.19432  -2.42398
H    -1.62490  -2.23574  -1.38376
H    -3.17355  -1.56993  -1.96162
H    -0.13565   1.98442  -2.07633
H     1.27870   3.97916  -1.77923
H     2.27583   4.49728   0.45254
H     1.83135   2.97175   2.37906
H     0.41886   0.96997   2.08488
