23
Generated by autodE on: 2022-06-16. E = -497.035815 Ha
C     3.24134  -0.05049   0.07732
C     1.88018  -0.00605  -0.55545
O     1.59174  -0.66836  -1.54022
C     0.85911   0.92745   0.08115
C     0.49770   0.49540   1.52979
C    -1.02539   0.63111   1.57574
C    -1.44745   0.29281   0.13319
C    -2.85442   0.75956  -0.23818
C    -1.37436  -1.18152  -0.05573
N    -1.29798  -2.32756  -0.23024
N    -0.40939   0.97385  -0.65274
H     3.65841   0.96744   0.13797
H     3.91109  -0.70103  -0.49996
H     3.16132  -0.42472   1.11094
H     1.32903   1.92674   0.09596
H     1.00919   1.10601   2.28465
H     0.78406  -0.55398   1.69896
H    -1.50417  -0.01940   2.32008
H    -1.32703   1.67089   1.77161
H    -3.07489   0.53222  -1.29201
H    -2.92051   1.84680  -0.08903
H    -3.60791   0.26306   0.39138
H    -0.29796   0.54439  -1.57179
