64
Generated by autodE on: 2022-06-07. E = -1455.085155 Ha
C     4.89330  -6.75584   6.16761
O     5.74734  -5.94390   5.34575
C     5.20641  -5.42677   4.24605
O     4.04203  -5.59131   3.93960
C     6.20742  -4.56327   3.45439
C     7.64098  -5.13667   3.57336
C     6.15138  -3.17742   4.14589
C     7.26222  -2.20619   3.74889
C     7.23538  -1.80378   2.27367
C     5.83261  -1.33035   1.88051
C     4.88755  -2.29273   1.04531
C     3.48022  -2.09529   1.65810
C     2.78491  -3.10149   2.33342
C     1.54479  -2.84560   2.93415
C     0.97664  -1.57390   2.87077
C     1.66795  -0.55292   2.20629
C     2.90243  -0.81130   1.61249
C     4.90304  -1.76991  -0.41254
C     6.11669  -1.36288  -0.99304
C     6.16368  -0.88064  -2.30016
C     4.99268  -0.79024  -3.05959
C     3.78049  -1.19322  -2.49749
C     3.73823  -1.68155  -1.18896
C     5.29866  -3.78057   1.02987
C     5.77833  -4.60852   1.99053
N     5.95216  -5.92107   1.42476
C     5.78521  -7.08985   2.02015
N     5.70501  -8.13447   2.53985
N     5.90029  -5.88715   0.00729
C     7.27772  -5.73481  -0.48892
C     5.00368  -4.71289  -0.20474
C     3.53661  -5.18666  -0.17879
C     5.27546  -4.23657  -1.57153
N     5.45137  -4.09402  -2.70908
H     5.50769  -7.07364   7.01753
H     4.02836  -6.17401   6.51589
H     4.54655  -7.62981   5.59779
H     8.03475  -4.95187   4.58086
H     8.29994  -4.64676   2.84442
H     7.67553  -6.21854   3.39469
H     6.22595  -3.36565   5.22717
H     5.15917  -2.73448   3.98062
H     8.24573  -2.61622   4.02235
H     7.12867  -1.29775   4.36064
H     7.57312  -2.63401   1.63604
H     7.95620  -0.98645   2.11463
H     5.29954  -1.05939   2.79942
H     5.89600  -0.39606   1.31144
H     3.21278  -4.09521   2.42323
H     1.02884  -3.65449   3.45759
H     0.00884  -1.37377   3.33674
H     1.24298   0.45241   2.15133
H     3.42422  -0.00094   1.10086
H     7.04458  -1.43494  -0.42416
H     7.12115  -0.57595  -2.72946
H     5.02717  -0.40845  -4.08277
H     2.85792  -1.13423  -3.08000
H     2.78217  -1.99836  -0.77316
H     7.27855  -5.78887  -1.58333
H     7.86178  -6.58077  -0.10473
H     7.74951  -4.79001  -0.16572
H     3.34120  -5.70514   0.76956
H     2.85490  -4.33160  -0.26228
H     3.35503  -5.87980  -1.01189
