15
Generated by autodE on: 2022-06-07. E = -413.240555 Ha
C    -1.93786  -1.46140   0.62193
C    -0.84567  -0.50332   0.24585
C    -1.22377   0.84661   0.00690
N    -1.68836   1.90344  -0.15157
N     0.41653  -0.90044   0.14117
C     0.71848  -2.31954   0.41862
N     1.50846  -0.21540  -0.18129
C     1.46048   1.06447  -0.47564
N     1.63947   2.18888  -0.76901
H    -2.89742  -0.93186   0.65014
H    -2.01305  -2.28210  -0.10910
H    -1.75390  -1.90353   1.61409
H     0.15785  -2.95477  -0.27809
H     1.79344  -2.45314   0.28025
H     0.42887  -2.55806   1.44964
