64
Generated by autodE on: 2022-06-07. E = -1455.021103 Ha. Imaginary frequency = -289.2 cm-1
C     6.12022  -7.39897   5.64637
O     6.70644  -6.33010   4.88814
C     5.90453  -5.67394   4.05339
O     4.71577  -5.90622   3.94985
C     6.62520  -4.53773   3.31522
C     8.12152  -4.82256   3.10402
C     6.41248  -3.30299   4.25953
C     7.18548  -2.03113   3.90714
C     6.95886  -1.45964   2.50269
C     5.47752  -1.20419   2.16052
C     4.78380  -2.12710   1.08122
C     3.28208  -2.05519   1.40831
C     2.59719  -3.12856   1.99097
C     1.25060  -3.01245   2.35500
C     0.56692  -1.81253   2.15206
C     1.24715  -0.72498   1.59213
C     2.58920  -0.84529   1.22840
C     5.09453  -1.60799  -0.34372
C     6.39835  -1.21692  -0.69035
C     6.70688  -0.77564  -1.97868
C     5.71529  -0.71359  -2.96110
C     4.41252  -1.09287  -2.63239
C     4.10904  -1.53053  -1.33943
C     5.29153  -3.53424   1.24622
C     5.92353  -4.27451   2.03425
N     6.08952  -6.14975   0.97743
C     6.37228  -7.25584   1.63611
N     6.73537  -8.18866   2.24757
N     4.93122  -6.10645   0.29352
C     3.73365  -6.75058   0.83877
C     4.81682  -5.01058  -0.48471
C     3.50425  -4.71644  -1.15181
C     6.01790  -4.60821  -1.16460
N     6.94649  -4.29096  -1.78859
H     5.75065  -8.17945   4.96646
H     5.29412  -7.02373   6.26674
H     6.92312  -7.79496   6.27858
H     8.64289  -4.85276   4.07015
H     8.57002  -4.03113   2.48954
H     8.28461  -5.78200   2.59659
H     6.71079  -3.61866   5.27200
H     5.33155  -3.09985   4.29812
H     8.26421  -2.20290   4.05050
H     6.89799  -1.27181   4.65484
H     7.42117  -2.13471   1.77173
H     7.51589  -0.51237   2.42857
H     4.88498  -1.30005   3.08137
H     5.33483  -0.16854   1.81979
H     3.12394  -4.06271   2.18081
H     0.73955  -3.86835   2.80268
H    -0.48482  -1.72025   2.43316
H     0.72936   0.22477   1.43705
H     3.10291   0.01397   0.79370
H     7.20039  -1.26675   0.04231
H     7.73322  -0.48409  -2.21438
H     5.95491  -0.37068  -3.97041
H     3.61971  -1.04797  -3.38312
H     3.08310  -1.81273  -1.11124
H     3.04682  -7.00308   0.02443
H     3.23857  -6.07812   1.55420
H     4.03558  -7.67152   1.34953
H     2.72806  -4.46795  -0.41699
H     3.61653  -3.88280  -1.84885
H     3.17855  -5.59900  -1.72602
