30
Generated by autodE on: 2022-05-25. E = -780.091156 Ha
C    -4.23271   0.06006   0.80140
C    -2.77661  -0.17283   1.08851
O    -2.36238  -0.31786   2.22324
C    -1.81652  -0.25430  -0.12344
C    -2.24277  -1.41388  -1.02884
N    -1.99596   1.02419  -0.90567
N    -0.98577   1.73408  -0.90639
C     0.13934   1.14620  -0.16448
C     1.29763   0.75377  -1.12682
O     0.79686  -0.45477  -1.69849
C     0.62848  -1.16923  -0.46322
C     1.99101  -0.99560   0.20124
C     2.56475  -1.93058   1.19274
C     2.41773   0.21523  -0.22928
C     3.56803   0.92688   0.17542
N     4.51611   1.52465   0.49715
C    -0.34533  -0.24077   0.32198
H    -4.68631  -0.89317   0.48228
H    -4.73919   0.40124   1.71358
H    -4.36854   0.77814  -0.01882
H    -1.59909  -1.44718  -1.91775
H    -2.16128  -2.36908  -0.49037
H    -3.28015  -1.28645  -1.36505
H     0.46609   1.85972   0.60143
H     1.56388   1.49481  -1.88672
H     0.30015  -2.19887  -0.63207
H     1.85878  -2.05586   2.03236
H     3.52691  -1.57575   1.58696
H     2.69867  -2.92993   0.74592
H    -0.26847  -0.38797   1.40283
