13
Generated by autodE on: 2022-05-25. E = -340.881190 Ha
C     1.55465  -1.59454   0.48491
C     0.92960  -0.23836   0.27642
O     1.56000   0.80938   0.44153
C    -0.47300  -0.24863  -0.13385
C    -1.32181  -1.47213  -0.35633
N    -0.99870   0.94051  -0.31094
N    -1.40957   1.98746  -0.45224
H     1.01198  -2.15415   1.26383
H     2.60379  -1.46957   0.78246
H     1.49862  -2.19318  -0.43842
H    -0.89353  -2.10987  -1.14560
H    -2.33891  -1.18955  -0.66007
H    -1.39377  -2.07364   0.56354
