17
Generated by autodE on: 2022-05-25. E = -439.145381 Ha
C     2.27337  -0.75150   0.55722
C     0.91361  -0.47655   0.04868
C     0.23726   0.67996  -0.12908
C     0.66608   1.99592   0.12790
N     1.00862   3.09301   0.33192
C    -1.19294   0.24868  -0.57726
C    -1.85375  -0.42788   0.64222
C    -1.17796  -1.56853   0.81063
C    -0.12243  -1.56991  -0.31529
O    -0.84576  -0.90029  -1.36287
H     2.20783  -1.36582   1.47283
H     2.82427   0.17154   0.78532
H     2.84600  -1.34591  -0.17475
H    -1.77511   0.98618  -1.13834
H    -2.65345   0.00575   1.24149
H    -1.26632  -2.32718   1.58722
H     0.28527  -2.53468  -0.63528
