30
Generated by autodE on: 2022-05-25. E = -780.010446 Ha. Imaginary frequency = -424.2 cm-1
C    -3.47055   0.85065   1.31571
C    -3.01758  -0.47338   0.76237
O    -3.25440  -1.53642   1.32799
C    -2.19821  -0.48813  -0.47337
C    -2.08796  -1.75968  -1.26189
N    -2.11677   0.67691  -1.14879
N    -1.47424   1.63254  -1.27616
C     0.15894   1.18116   0.12877
C     1.28324   0.90188  -0.88236
O     0.86578  -0.36743  -1.40542
C     0.76764  -1.02929  -0.13348
C     2.18266  -0.77688   0.43301
C     2.87707  -1.68014   1.37457
C     2.51866   0.43858  -0.05771
C     3.67490   1.19937   0.20167
N     4.62903   1.84153   0.40127
C    -0.18142  -0.07253   0.61567
H    -4.16439   1.33937   0.61284
H    -3.97433   0.68894   2.27687
H    -2.61499   1.52981   1.45507
H    -1.31958  -1.67331  -2.04031
H    -1.81535  -2.56724  -0.56994
H    -3.04899  -2.02905  -1.73027
H     0.05309   2.13056   0.65166
H     1.46539   1.63915  -1.67061
H     0.47391  -2.07876  -0.23177
H     2.25577  -1.82133   2.27681
H     3.85879  -1.28936   1.67639
H     3.00508  -2.68012   0.92678
H    -0.56182  -0.29437   1.61163
