56
Generated by autodE on: 2022-06-11. E = -1461.361598 Ha
C     1.53597  -4.02141  -1.01691
O     1.41328  -2.59120  -1.05224
C     1.37708  -1.96153   0.11569
O     1.52657  -2.50789   1.18519
C     1.21215  -0.43216  -0.10336
C     2.62451   0.14080  -0.07964
C     3.14470   0.81455  -1.18997
C     4.43733   1.34650  -1.14195
C     5.21595   1.20712   0.00926
C     4.69725   0.52947   1.11810
C     3.40893  -0.00464   1.07466
O     0.63830  -0.18506  -1.37681
C    -0.76991  -0.22164  -1.31636
C    -1.25427  -1.60349  -1.56238
N    -1.62731  -2.66567  -1.83975
C    -1.36484   0.58736  -2.51542
C    -0.40680   1.12946  -3.52453
O    -2.56996   0.68376  -2.59478
C    -1.18332   0.31885   0.12305
C    -2.34074  -0.49935   0.67992
C    -3.65819  -0.06549   0.45131
C    -4.75137  -0.82867   0.86484
C    -4.55187  -2.04892   1.51649
C    -3.24870  -2.49919   1.73681
C    -2.15490  -1.73670   1.31832
C    -1.43855   1.86271   0.11286
C    -1.79611   2.32137   1.54554
C    -0.44530   2.20795   2.30423
C     0.52945   1.73141   1.20812
C    -0.02164   2.45013  -0.02917
C     0.21139   0.25466   0.89945
F     0.16343  -0.44770   2.08614
H     1.56003  -4.34599  -2.06295
H     2.46167  -4.31329  -0.50145
H     0.66955  -4.45966  -0.50150
H     2.54061   0.92658  -2.08919
H     4.83484   1.87254  -2.01300
H     6.22519   1.62380   0.04377
H     5.29798   0.41616   2.02330
H     3.00595  -0.52857   1.94250
H     0.20715   0.30529  -3.92156
H    -0.96759   1.61546  -4.33245
H     0.28707   1.84323  -3.05671
H    -3.83946   0.87538  -0.06694
H    -5.76422  -0.46594   0.67455
H    -5.40601  -2.64677   1.84315
H    -3.07469  -3.45685   2.23315
H    -1.15434  -2.12788   1.48413
H    -2.16827   2.17940  -0.63743
H    -2.14797   3.36233   1.50767
H    -2.59194   1.72232   2.00282
H    -0.11074   3.18318   2.68484
H    -0.48565   1.51437   3.15300
H     1.58435   1.89312   1.45014
H    -0.01662   3.54272   0.09236
H     0.50061   2.20370  -0.95869
