29
Generated by autodE on: 2022-06-11. E = -857.978519 Ha
C     0.18991   3.60688   0.94541
O     0.10968   2.16696   0.90565
C     0.68209   1.56215  -0.12250
O     1.33206   2.09435  -0.99220
C     0.45143   0.07188  -0.05425
O    -0.74104  -0.40695  -0.00706
C    -1.98924   0.11338  -0.11705
C    -2.21757   1.44666  -0.49760
N    -2.44177   2.54104  -0.84300
C    -3.07980  -0.80998   0.08306
C    -2.73664  -2.24186   0.41643
O    -4.25043  -0.41970  -0.01725
C     1.54505  -0.86659  -0.02749
C     2.88445  -0.41323   0.02285
C     3.92872  -1.33207   0.06544
C     3.66053  -2.70515   0.05967
C     2.33600  -3.16364   0.01038
C     1.28404  -2.25877  -0.03451
H     1.24144   3.92023   0.99657
H    -0.34902   3.90869   1.84947
H    -0.28833   4.02894   0.05145
H    -2.13219  -2.29692   1.33480
H    -2.14335  -2.69639  -0.39265
H    -3.66810  -2.80618   0.55153
H     3.10579   0.65385   0.02677
H     4.95956  -0.97505   0.10451
H     4.48420  -3.42169   0.09181
H     2.12829  -4.23545   0.00295
H     0.25406  -2.61306  -0.07828
