29
Generated by autodE on: 2022-07-27. E = -857.978430 Ha
C    -0.51504  -3.59442   0.88187
O    -0.16522  -2.33273   0.27649
C     0.05863  -1.31687   1.09424
O     0.07558  -1.36504   2.30256
C     0.33768  -0.05754   0.31120
O    -0.49853   0.37165  -0.56701
C    -1.75420   0.02837  -0.94741
C    -2.52563  -0.90927  -0.23983
N    -3.20515  -1.66001   0.34482
C    -2.30221   0.76293  -2.06240
C    -1.43021   1.80950  -2.71283
O    -3.45112   0.52491  -2.45701
C     1.54628   0.70502   0.50264
C     1.73252   1.92428  -0.19386
C     2.90369   2.65048  -0.02443
C     3.90607   2.18349   0.83816
C     3.73094   0.98141   1.53210
C     2.56315   0.24202   1.37087
H    -1.43165  -3.47875   1.47553
H    -0.67937  -4.28699   0.04990
H     0.30828  -3.94247   1.52038
H    -0.49081   1.36719  -3.07827
H    -1.97994   2.25730  -3.55044
H    -1.16133   2.59349  -1.98722
H     0.94994   2.28893  -0.85941
H     3.04006   3.59052  -0.56271
H     4.82409   2.76035   0.96968
H     4.51120   0.61682   2.20294
H     2.43884  -0.69275   1.91683
