56
Generated by autodE on: 2022-06-11. E = -1461.287637 Ha. Imaginary frequency = -216.6 cm-1
C     0.44643  -4.09196   0.17035
O     0.59831  -2.77160  -0.36431
C     1.61532  -2.03622   0.05401
O     2.45544  -2.42376   0.84097
C     1.59562  -0.67448  -0.56378
C     2.80092   0.16476  -0.51134
C     3.13104   0.99322  -1.60478
C     4.24607   1.82587  -1.55327
C     5.05328   1.85624  -0.41063
C     4.73312   1.04336   0.68068
C     3.62180   0.20239   0.63618
O     0.81282  -0.40980  -1.60125
C    -0.48814  -0.57574  -1.88306
C    -1.19930  -1.80284  -1.83744
N    -1.90149  -2.73122  -1.91139
C    -1.11102   0.46570  -2.70528
C    -0.26508   1.58493  -3.24837
O    -2.32135   0.39609  -2.93621
C    -1.10918   0.24365   0.57313
C    -2.27143  -0.63791   0.66136
C    -3.51216  -0.20602   0.14188
C    -4.64381  -1.01512   0.22393
C    -4.56925  -2.27569   0.82607
C    -3.34725  -2.72083   1.33862
C    -2.21084  -1.91739   1.25689
C    -1.23119   1.75225   0.35598
C    -1.62491   2.30268   1.76768
C    -0.33509   2.06803   2.60570
C     0.66048   1.47536   1.55557
C     0.23434   2.22188   0.28666
C     0.12001   0.10514   1.22803
F     0.37797  -0.89499   2.10159
H    -0.49495  -4.46971  -0.24364
H     1.28818  -4.72505  -0.14450
H     0.39960  -4.05471   1.26733
H     2.51417   0.97084  -2.50153
H     4.48978   2.45219  -2.41428
H     5.92707   2.51057  -0.37197
H     5.35076   1.06613   1.58122
H     3.37381  -0.41143   1.49829
H     0.60599   1.18405  -3.78875
H    -0.88137   2.18800  -3.92701
H     0.11596   2.22554  -2.44174
H    -3.58885   0.77022  -0.33558
H    -5.59203  -0.65860  -0.18512
H    -5.45753  -2.90837   0.89042
H    -3.27435  -3.70626   1.80470
H    -1.27033  -2.28604   1.65705
H    -1.89247   2.06897  -0.45717
H    -1.86112   3.37361   1.68441
H    -2.50665   1.79225   2.17769
H     0.06903   3.00907   3.00582
H    -0.48812   1.37935   3.44868
H     1.71635   1.50496   1.84401
H     0.32515   3.31258   0.38490
H     0.77043   1.89587  -0.60713
