47
Generated by autodE on: 2022-12-30. E = -1164.510839 Ha
C     4.92398   0.67164   0.48748
N     3.53529   0.73386   0.07714
C     2.91199  -0.31237  -0.48147
O     3.47243  -1.39699  -0.68409
C     1.46075  -0.09279  -0.90584
N     0.99470   1.26273  -0.62351
C    -0.13039   1.21681  -0.02819
C    -0.81331   2.46979   0.44220
O    -0.91326   2.76406   1.61518
O    -1.26037   3.20437  -0.56834
C    -1.98750   4.39755  -0.22480
C    -0.73298  -0.14676   0.23596
C    -2.17105  -0.10681  -0.30723
O    -2.95362   0.70813   0.20566
N    -2.51882  -0.92212  -1.30268
C    -3.86428  -0.93192  -1.84164
C    -0.74984  -0.49529   1.76167
C    -1.39367  -1.88356   1.93256
C    -0.32473  -2.84042   1.33017
C     0.82789  -1.89095   0.93216
C     0.73016  -0.80811   2.02097
C     0.40105  -1.10816  -0.33572
O    -0.07745  -1.93677  -1.37925
C     0.80860  -2.93653  -1.86310
H     5.59053   0.50712  -0.37456
H     5.19500   1.61926   0.96842
H     5.08617  -0.14969   1.20252
H     3.01044   1.59780   0.17332
H     1.47338  -0.21730  -2.00078
H    -1.35489   5.07650   0.36381
H    -2.26730   4.86331  -1.17619
H    -2.88567   4.13345   0.35173
H    -1.79778  -1.55696  -1.64895
H    -3.90563  -1.63885  -2.67927
H    -4.59969  -1.24016  -1.08105
H    -4.15337   0.06702  -2.20387
H    -1.20432   0.29899   2.36272
H    -2.37253  -1.96459   1.43990
H    -1.55142  -2.08147   3.00279
H    -0.70655  -3.40757   0.47199
H     0.03314  -3.56346   2.07673
H     1.79936  -2.38269   0.82510
H     1.40056   0.04934   1.87519
H     0.90208  -1.21385   3.02851
H     1.78120  -2.50962  -2.15218
H     0.98107  -3.72582  -1.11324
H     0.32673  -3.38139  -2.74419
