28
Generated by autodE on: 2022-12-30. E = -595.568194 Ha
C     3.49946   1.15728  -0.93092
N     2.13076   0.98122  -0.49753
C     1.69160  -0.19343   0.01836
O     2.46400  -1.16227   0.16853
C     0.27961  -0.27315   0.39911
C    -0.74325   0.59009   0.13900
O    -0.61750   1.76964  -0.48962
C    -1.77427   2.59320  -0.66201
C    -2.04744  -0.09532   0.49997
C    -2.24262  -1.20230  -0.59256
C    -1.09975  -2.21220  -0.27930
C    -0.37378  -1.54304   0.92906
C    -1.57503  -0.95080   1.69310
H     4.20905   0.95293  -0.11305
H     3.63833   2.19441  -1.26142
H     3.75751   0.48621  -1.76809
H     1.45384   1.72090  -0.65490
H    -1.43091   3.49434  -1.18477
H    -2.53374   2.08281  -1.27297
H    -2.20459   2.87521   0.31090
H    -2.91513   0.55602   0.64950
H    -3.23414  -1.66308  -0.47272
H    -2.18670  -0.78329  -1.60731
H    -0.41289  -2.36145  -1.12451
H    -1.50501  -3.19510   0.00581
H     0.30056  -2.20807   1.48179
H    -2.31954  -1.70353   1.99467
H    -1.27896  -0.34740   2.56360
