47
Generated by autodE on: 2022-12-30. E = -1164.410640 Ha. Imaginary frequency = -358.0 cm-1
C     4.78771   0.38110   0.86069
N     3.59726   0.68879   0.09362
C     3.04598  -0.21767  -0.74747
O     3.62298  -1.28017  -1.04298
C     1.70895   0.07305  -1.28295
N     1.02132   1.14628  -0.90481
C     0.03971   1.50325  -0.30095
C    -0.72765   2.68351   0.07287
O    -0.52775   3.28950   1.10761
O    -1.71442   2.90790  -0.78857
C    -2.71976   3.85829  -0.38901
C    -0.82841  -0.51118   0.42700
C    -2.16967  -0.11137  -0.05145
O    -2.95408   0.50933   0.69283
N    -2.49398  -0.40834  -1.32835
C    -3.73625   0.03881  -1.92124
C    -0.52382  -0.52214   1.92081
C    -1.11085  -1.86150   2.46436
C    -0.18422  -2.93579   1.81776
C     0.83689  -2.07449   1.00394
C     0.97841  -0.85073   1.92650
C     0.02092  -1.47544  -0.13125
O    -0.30377  -2.15059  -1.26314
C     0.62988  -3.10850  -1.75919
H     5.59872   0.04129   0.20011
H     5.11735   1.28619   1.38575
H     4.59966  -0.41176   1.60514
H     3.05330   1.50438   0.35614
H     1.44551  -0.36597  -2.24659
H    -2.27039   4.84701  -0.22374
H    -3.43684   3.89758  -1.21613
H    -3.21276   3.50903   0.52903
H    -1.84344  -0.97236  -1.86695
H    -3.78931   1.13961  -1.95897
H    -3.80151  -0.34931  -2.94538
H    -4.60940  -0.31962  -1.35283
H    -0.84513   0.37652   2.46078
H    -2.16787  -1.98091   2.18711
H    -1.04655  -1.88866   3.56272
H    -0.72737  -3.63847   1.16969
H     0.34861  -3.52364   2.57984
H     1.75696  -2.59217   0.71101
H     1.60429  -0.05203   1.51522
H     1.35067  -1.12344   2.92494
H     1.62609  -2.65734  -1.88110
H     0.70191  -3.97479  -1.08331
H     0.24798  -3.43901  -2.73338
