43
Generated by autodE on: 2022-06-22. E = -1111.725144 Ha
C     4.52590   2.17446  -0.56370
O     3.49395   1.37105  -1.15249
C     2.33808   1.30807  -0.49206
O     2.06074   1.98761   0.47316
C     1.37717   0.33349  -1.16392
O     0.04082   0.72794  -0.87399
C    -0.62621  -0.27658  -0.10162
C    -0.27498   0.07587   1.36248
O     0.55167  -0.49256   2.04646
O    -0.92746   1.16255   1.75933
C    -0.55563   1.71332   3.03333
C    -2.12189  -0.19516  -0.32607
C    -2.65379   0.49545  -1.42031
C    -4.03475   0.51182  -1.63849
C    -4.89468  -0.16273  -0.76749
C    -4.36671  -0.84876   0.33144
C    -2.98825  -0.86162   0.55265
C     0.02592  -1.60846  -0.60352
C    -0.21934  -2.83012   0.28456
C    -0.49944  -1.93277  -2.01338
C     1.51263  -1.15345  -0.74072
C     2.42501  -1.46461   0.42014
O     3.31302  -0.74021   0.82089
H     4.19709   3.21904  -0.46788
H     4.78976   1.77889   0.42812
H     5.38623   2.10825  -1.23954
H     1.53214   0.42447  -2.24825
H    -1.20037   2.58657   3.18300
H    -0.71696   0.97672   3.83282
H     0.50124   2.01529   3.01457
H    -1.98406   1.02111  -2.10047
H    -4.43927   1.05580  -2.49542
H    -5.97343  -0.14957  -0.93992
H    -5.03081  -1.37219   1.02314
H    -2.58588  -1.38829   1.42108
H     0.05128  -2.66881   1.33307
H     0.35614  -3.68687  -0.09791
H    -1.28311  -3.10586   0.24109
H    -1.56262  -2.20772  -1.98473
H    -0.38229  -1.08976  -2.70876
H     0.06386  -2.78823  -2.41482
H     1.97647  -1.72821  -1.56152
H     2.30709  -2.48913   0.83499
