14
Generated by autodE on: 2022-06-22. E = -270.683212 Ha
C    -1.21731  -0.57440  -0.84173
C    -0.69120   0.53249   0.02648
C    -1.63233   1.66335   0.29770
C     0.56429   0.53962   0.55267
C     1.57164  -0.49334   0.36422
O     1.45243  -1.52400  -0.29446
H    -1.17220  -1.54188  -0.31728
H    -2.25537  -0.38111  -1.14631
H    -0.59731  -0.69320  -1.74463
H    -2.55096   1.28027   0.77602
H    -1.19038   2.44009   0.93689
H    -1.95506   2.11895  -0.65508
H     0.87107   1.38411   1.17664
H     2.53638  -0.28895   0.88912
