29
Generated by autodE on: 2022-06-22. E = -840.950860 Ha
C     3.93781  -2.11167   0.06831
O     2.77610  -1.27957  -0.02588
C     2.96737  -0.03522  -0.50221
O     4.06261   0.39488  -0.84474
C     1.76359   0.76569  -0.57969
O     0.65084   0.21527  -0.19058
C    -0.62444   0.50126  -0.06850
C    -1.13957   1.82547  -0.44639
O    -2.30564   2.17695  -0.35919
O    -0.17460   2.63266  -0.90946
C    -0.57139   3.95246  -1.30756
C    -1.42948  -0.59939   0.46058
C    -0.79543  -1.82286   0.78903
C    -1.52639  -2.89324   1.29447
C    -2.90874  -2.78183   1.48889
C    -3.54733  -1.58105   1.16863
C    -2.82516  -0.50045   0.66108
H     3.58999  -3.07215   0.46598
H     4.67987  -1.66772   0.74841
H     4.39437  -2.25566  -0.92215
H     1.79470   1.78679  -0.94715
H    -1.00757   4.49435  -0.45629
H     0.34376   4.44989  -1.64807
H    -1.30559   3.90148  -2.12429
H     0.27929  -1.92647   0.64344
H    -1.01158  -3.82525   1.53957
H    -3.48024  -3.62378   1.88595
H    -4.62532  -1.47874   1.31443
H    -3.33823   0.42548   0.41712
