29
Generated by autodE on: 2022-07-27. E = -840.945989 Ha
C     4.81998   0.54742  -0.28302
O     3.65507   0.92668  -1.01994
C     2.46966   0.48363  -0.53988
O     2.37878  -0.19848   0.48332
C     1.39131   0.84289  -1.40444
O     0.14582   0.42716  -1.19390
C    -0.49669   0.01442  -0.13596
C    -0.01606   0.33612   1.23971
O    -0.15833  -0.39029   2.20202
O     0.46398   1.57746   1.29796
C     1.03011   1.99341   2.54945
C    -1.77178  -0.62856  -0.38599
C    -2.12315  -0.99920  -1.70667
C    -3.35038  -1.59784  -1.97048
C    -4.25227  -1.85295  -0.92933
C    -3.91375  -1.49862   0.38104
C    -2.69084  -0.89176   0.65716
H     4.76297   0.91021   0.75454
H     4.94226  -0.54635  -0.27512
H     5.66936   1.01376  -0.79655
H     1.55152   1.19117  -2.42245
H     1.42840   2.99998   2.37921
H     0.25826   2.01583   3.33197
H     1.83735   1.30849   2.84359
H    -1.41866  -0.82013  -2.51948
H    -3.60428  -1.87777  -2.99533
H    -5.21238  -2.32959  -1.13913
H    -4.61224  -1.69235   1.19807
H    -2.44698  -0.61706   1.68213
