43
Generated by autodE on: 2022-06-22. E = -1111.629899 Ha. Imaginary frequency = -318.0 cm-1
C     4.49454   1.46818   0.18117
O     3.32171   1.49918  -0.64167
C     2.17217   1.10767  -0.06553
O     2.08115   0.81444   1.11632
C     1.13427   1.00441  -1.09190
O    -0.15619   0.90424  -0.88074
C    -0.83514   0.30098   0.10591
C    -0.54870   0.70495   1.51776
O    -0.68872  -0.00394   2.49442
O    -0.26374   2.00896   1.58326
C     0.06949   2.52926   2.87825
C    -2.22376  -0.00659  -0.23948
C    -2.67176   0.12906  -1.57206
C    -3.97959  -0.19987  -1.91809
C    -4.87007  -0.68404  -0.95184
C    -4.43575  -0.82872   0.36886
C    -3.13029  -0.49198   0.72733
C     0.38421  -1.89789  -0.34948
C     0.77848  -2.31166   1.04310
C    -0.83610  -2.58223  -0.89718
C     1.31099  -1.38458  -1.26445
C     2.75196  -1.43702  -1.06029
O     3.57591  -1.33058  -1.96399
H     4.38365   2.14765   1.03856
H     4.68167   0.44726   0.54523
H     5.32057   1.79794  -0.45919
H     1.37439   1.33063  -2.10337
H     0.93149   1.98965   3.29417
H    -0.78771   2.43952   3.56080
H     0.32155   3.58454   2.72289
H    -1.98401   0.49432  -2.33478
H    -4.30699  -0.08233  -2.95377
H    -5.89349  -0.94722  -1.22816
H    -5.11946  -1.20702   1.13231
H    -2.80737  -0.61577   1.76002
H    -0.09600  -2.30832   1.70584
H     1.16672  -3.34596   1.01680
H     1.54450  -1.66492   1.48485
H    -1.67051  -2.58869  -0.18249
H    -1.17537  -2.14011  -1.84341
H    -0.57230  -3.63762  -1.09519
H     1.01083  -1.30434  -2.31335
H     3.09730  -1.59650  -0.01549
