26
Generated by autodE on: 2022-06-20. E = -689.460846 Ha
C    -3.19192  -1.04073   0.50875
O    -1.88332  -1.53107   0.19898
C    -0.81624  -0.73642   0.11913
C    -0.71270   0.59778   0.37831
O    -1.75509   1.35057   0.83805
C    -2.31321   2.28414  -0.09281
C     0.59077   1.28398   0.24859
O     0.67804   2.47666   0.53570
C     1.78896   0.52159  -0.21556
C     3.07484   1.27152  -0.36492
C     1.69972  -0.80807  -0.46705
C     2.87950  -1.61618  -0.91152
C     0.40189  -1.51240  -0.30636
O     0.29085  -2.71150  -0.52255
H    -3.84775  -1.91928   0.46087
H    -3.51923  -0.29808  -0.23288
H    -3.22396  -0.60661   1.51621
H    -3.13636   2.79107   0.42792
H    -1.56828   3.02855  -0.41007
H    -2.70938   1.75939  -0.97809
H     3.46562   1.17312  -1.39104
H     2.94403   2.33513  -0.13459
H     3.84665   0.85662   0.30483
H     3.69562  -1.55308  -0.17312
H     3.28324  -1.22635  -1.86060
H     2.61045  -2.66975  -1.05057
