13
Generated by autodE on: 2022-06-20. E = -381.792769 Ha
C     2.79616  -0.34490   0.87079
O     1.55499  -0.20265   0.60832
C     0.95690  -0.05932  -0.57527
C    -0.45741   0.08833  -0.60489
O    -1.11140   0.23153  -1.64068
O    -1.04561   0.05983   0.62414
C    -2.46491   0.20832   0.64300
H     3.52956  -0.36080   0.05761
H     3.04579  -0.44423   1.92723
H     1.57209  -0.05715  -1.47541
H    -2.95794  -0.60120   0.08302
H    -2.76237   0.16218   1.69820
H    -2.77011   1.17508   0.21363
