24
Generated by autodE on: 2022-10-13. E = -609.444075 Ha
C    -2.57192  -0.52080  -1.94802
C    -2.24031   0.84111  -1.49088
N    -1.30484   1.13510  -0.63610
C    -0.32449   0.33600  -0.03485
C     0.37063  -0.65801  -0.85484
O     0.27792  -0.66120  -2.10068
N     1.13407  -1.58787  -0.21858
C     2.03366  -2.44159  -0.96516
C     0.08584   0.87786   1.23011
O    -0.39108   1.90460   1.72708
O     1.05814   0.17710   1.87018
C     1.50825   0.69493   3.12409
H    -3.62595  -0.55847  -2.25686
H    -1.93822  -0.82102  -2.79911
H    -2.38283  -1.25257  -1.14469
H    -2.83861   1.69345  -1.82344
H    -1.30679   2.09626  -0.27759
H     1.30684  -1.44381   0.77078
H     2.50699  -3.15002  -0.27302
H     1.48793  -3.01447  -1.72962
H     2.82884  -1.87337  -1.48051
H     0.68187   0.74364   3.84879
H     2.27670  -0.00201   3.47992
H     1.94061   1.69915   3.00249
