24
Generated by autodE on: 2022-10-07. E = -609.449807 Ha
C     3.81189   0.60698  -0.45264
C     2.54217  -0.14551  -0.33774
N     1.40716   0.46138  -0.16043
C     0.09233   0.00707  -0.01660
C    -0.20053  -1.42113  -0.04498
O     0.69388  -2.28504  -0.20451
N    -1.49509  -1.79356   0.11084
C    -1.88287  -3.18506   0.10484
C    -0.89826   1.02623   0.16083
O    -2.11452   0.85361   0.31159
O    -0.37388   2.28664   0.15237
C    -1.28653   3.37090   0.32422
H     4.51333   0.28343   0.33583
H     4.30028   0.37771  -1.41551
H     3.65969   1.69386  -0.37521
H     2.51351  -1.23271  -0.39529
H     1.45231   1.48549  -0.10824
H    -2.18023  -1.05111   0.23804
H    -1.63194  -3.67943  -0.84895
H    -1.38743  -3.75435   0.90949
H    -2.96845  -3.25090   0.25288
H    -0.68093   4.28493   0.29426
H    -1.80661   3.29861   1.29116
H    -2.03206   3.38996  -0.48490
