47
Generated by autodE on: 2022-06-09. E = -4272.685894 Ha
C    -0.62555   4.56774   1.08534
N     0.06034   3.31118   1.31921
C    -0.47798   2.15279   0.94015
O    -1.62336   2.03991   0.49095
C     0.32858   0.83785   1.18089
C     1.77429   0.95679   1.73841
C     2.26811  -0.22488   2.51736
O     2.43557   1.96578   1.58806
O    -0.40297   0.12286   2.17135
C    -1.24391  -0.83014   1.55999
C    -2.70729  -0.36770   1.51777
O    -3.48465  -0.69118   0.64448
O    -3.01774   0.36998   2.57052
C    -4.34758   0.91634   2.60691
C    -0.66696  -1.02252   0.17287
C     0.24445  -0.06158  -0.07201
C     1.07570   0.20685  -1.29849
Cl    1.28666   2.00086  -1.50764
Br    2.91731  -0.55346  -0.93392
C     0.64637  -0.36011  -2.64885
C    -0.70877   0.09406  -3.19448
C    -1.94529  -0.25728  -2.36849
C    -2.07151  -1.71454  -1.93392
C    -1.15818  -2.17472  -0.70877
C    -0.00619  -2.99754  -1.13787
N     0.86989  -3.69231  -1.44288
C    -1.96639  -3.12595   0.08799
N    -2.59186  -3.90953   0.66836
H    -0.08192   5.37163   1.59634
H    -1.65168   4.52310   1.47615
H    -0.67825   4.80003   0.00811
H     1.06072   3.30978   1.51246
H     3.36393  -0.19672   2.56624
H     1.91505  -1.17710   2.10075
H     1.86228  -0.14519   3.53993
H    -1.21449  -1.75772   2.15797
H    -4.49234   1.59526   1.75448
H    -4.41957   1.46864   3.55037
H    -5.09550   0.11194   2.57410
H     0.69775  -1.45312  -2.60223
H     1.42689  -0.06772  -3.36472
H    -0.79846  -0.37550  -4.18745
H    -0.68842   1.18137  -3.36364
H    -2.83151  -0.04632  -2.98778
H    -2.03504   0.40222  -1.49438
H    -1.86792  -2.40285  -2.76692
H    -3.10246  -1.88601  -1.60795
