25
Generated by autodE on: 2022-07-27. E = -742.646080 Ha
C     0.53093   3.45062   0.39921
N     0.94135   2.17794  -0.15544
C     0.44108   1.01688   0.30585
O    -0.47193   0.96114   1.15286
C     1.09343  -0.20780  -0.18966
O     0.60337  -1.39558   0.22089
C    -0.59479  -1.70874   0.55069
C    -1.79083  -0.97454   0.09264
O    -1.83336  -0.31505  -0.92819
O    -2.83526  -1.25435   0.86678
C    -4.09737  -0.69036   0.47111
C     2.41755  -0.29768  -0.76095
C     3.03434  -1.66776  -0.90719
O     3.01963   0.71441  -1.16167
H     0.95705   3.62636   1.40226
H    -0.56409   3.49046   0.48630
H     0.86468   4.25597  -0.26741
H     1.80222   2.09803  -0.70291
H    -0.69276  -2.69922   1.00166
H    -4.02739   0.40625   0.43741
H    -4.81915  -1.00489   1.23285
H    -4.39212  -1.07198  -0.51698
H     2.46698  -2.26734  -1.63708
H     4.06790  -1.55336  -1.25792
H     3.01881  -2.21614   0.04700
