25
Generated by autodE on: 2022-06-09. E = -742.654335 Ha
C    -2.83503   1.61335   3.05726
N    -1.81894   0.73985   2.51394
C    -1.34113   0.84708   1.25869
O    -1.72441   1.70006   0.43677
C    -0.30078  -0.13246   0.88885
O     0.22994  -0.09867  -0.32566
C     0.07664   0.62038  -1.37708
C     0.91336   0.29309  -2.53368
O     0.83669   0.91913  -3.57758
O     1.74218  -0.73344  -2.32375
C     2.59018  -1.10486  -3.42048
C     0.26001  -1.19162   1.71416
C     1.31949  -2.07285   1.09937
O    -0.11783  -1.36619   2.88138
H    -2.44955   2.18252   3.91872
H    -3.71116   1.03619   3.39341
H    -3.15574   2.32156   2.28445
H    -1.41314  -0.00547   3.08339
H    -0.64260   1.43631  -1.39825
H     3.24319  -0.26590  -3.70165
H     3.18949  -1.95029  -3.06432
H     1.98552  -1.40489  -4.28867
H     2.18468  -1.47403   0.77561
H     0.93060  -2.58399   0.20523
H     1.63728  -2.81401   1.84325
