22
Generated by autodE on: 2022-06-09. E = -3529.897219 Ha
N    -2.04079   0.14059  -4.36997
C    -2.02758   0.09439  -3.21274
C    -2.00365  -0.01153  -1.74059
C    -3.07766   0.83952  -1.18360
N    -3.92534   1.47590  -0.71648
C    -0.71201   0.37787  -1.16389
C     0.22466   0.30881  -0.40193
C     1.05434  -0.23350   0.64513
Cl    2.45639  -1.11745  -0.10100
Br    1.77588   1.21630   1.80353
C     0.19654  -1.19614   1.48722
C    -0.62189  -2.22360   0.67759
C    -2.03672  -1.81414   0.18108
C    -2.23740  -1.51945  -1.31620
H     0.87859  -1.71145   2.17898
H    -0.48255  -0.57792   2.09400
H    -0.01646  -2.60318  -0.16135
H    -0.75536  -3.08080   1.35357
H    -2.42850  -0.97865   0.78534
H    -2.70649  -2.66054   0.39269
H    -1.54765  -2.11896  -1.92767
H    -3.26333  -1.76660  -1.62498
