47
Generated by autodE on: 2022-06-09. E = -4272.551939 Ha. Imaginary frequency = -238.5 cm-1
C     0.52252   4.51987   2.18802
N     0.89140   3.20907   1.69627
C     0.33155   2.09316   2.18307
O    -0.55831   2.09697   3.04724
C     0.91549   0.79738   1.72364
C     2.34288   0.61869   1.43043
C     2.91849  -0.76600   1.57783
O     3.02827   1.57188   1.05463
O     0.33355  -0.31741   2.16623
C    -0.91851  -0.64792   2.13382
C    -2.08804   0.24132   1.86316
O    -2.15274   1.15665   1.07094
O    -3.12563  -0.21986   2.56643
C    -4.38962   0.42391   2.33911
C    -0.67961  -1.18884  -0.18072
C    -0.00926  -0.27460  -0.66035
C     0.54466   0.46804  -1.77837
Cl    0.59957   2.24836  -1.45186
Br    2.42676  -0.16378  -2.06281
C    -0.27208   0.25203  -3.06141
C    -0.45665  -1.18571  -3.56233
C    -1.57452  -2.05331  -2.94718
C    -1.20118  -3.01076  -1.80610
C    -1.44114  -2.45110  -0.35793
C    -2.88624  -2.19884  -0.16136
N    -4.02000  -1.99148  -0.04972
C    -1.00368  -3.47515   0.61401
N    -0.62911  -4.28626   1.35133
H     0.91354   4.70720   3.20297
H    -0.57219   4.61778   2.22368
H     0.92697   5.28129   1.50927
H     1.71830   3.08533   1.11374
H     3.96847  -0.74988   1.26087
H     2.35749  -1.49736   0.97865
H     2.85157  -1.08733   2.63001
H    -1.11341  -1.61476   2.60057
H    -4.32157   1.49214   2.58896
H    -5.10558  -0.07943   2.99821
H    -4.68861   0.30577   1.28822
H    -1.25650   0.71011  -2.87161
H     0.21606   0.85175  -3.84331
H     0.50356  -1.72537  -3.52663
H    -0.69272  -1.08014  -4.63190
H    -1.95367  -2.69676  -3.75450
H    -2.42920  -1.42094  -2.65335
H    -0.13977  -3.29409  -1.85656
H    -1.79382  -3.93439  -1.87384
