51
Generated by autodE on: 2022-06-04. E = -1428.389541 Ha
C    -4.65214   1.45821   1.59474
N    -3.63229   0.95711   0.69371
C    -2.35098   1.31887   0.81768
O    -1.97139   2.21041   1.57599
C    -1.29578   0.60466  -0.12143
C    -1.90394   0.78814  -1.54065
C    -1.35013   1.88963  -2.39332
O    -2.86171   0.11929  -1.88716
N    -0.03471   1.31296  -0.01984
C     0.92810   0.65101   0.83495
C     0.75274   1.02015   2.26952
N     0.64677   1.30844   3.38868
C     2.37457   0.98067   0.44553
C     2.65951   1.57015  -0.79020
C     3.98593   1.79982  -1.17032
C     5.03559   1.44003  -0.32147
C     4.75272   0.85213   0.91635
C     3.42928   0.62673   1.29892
C     0.58565  -0.86174   0.68251
C     1.31503  -1.63112  -0.44295
C     1.03712  -3.13519  -0.22436
C    -0.43672  -3.28485  -0.69705
C    -0.85556  -1.83605  -1.02843
C     0.44897  -1.32669  -1.67656
C    -0.92569  -0.91686   0.24057
C    -1.79136  -1.50427   1.35833
F    -1.25513  -2.61701   1.89520
F    -3.02038  -1.84250   0.92407
F    -1.94971  -0.65853   2.39989
H    -4.49200   1.08639   2.62055
H    -5.63425   1.11977   1.24290
H    -4.64068   2.55764   1.62207
H    -3.86577   0.21385   0.04278
H    -1.41447   2.84368  -1.84430
H    -0.28570   1.72397  -2.61066
H    -1.92881   1.95397  -3.32318
H    -0.17022   2.29197   0.22470
H     1.83914   1.84294  -1.45299
H     4.19693   2.26279  -2.13724
H     6.07108   1.61889  -0.62035
H     5.56614   0.56839   1.58814
H     3.21762   0.16559   2.26645
H     0.75804  -1.35943   1.64256
H     2.37924  -1.38241  -0.51358
H     1.18113  -3.42913   0.82546
H     1.71818  -3.74276  -0.83758
H    -1.08699  -3.79494   0.02077
H    -0.48723  -3.85661  -1.63505
H    -1.76393  -1.78597  -1.63049
H     0.72817  -1.92459  -2.55607
H     0.45016  -0.26760  -1.95739
