31
Generated by autodE on: 2022-06-04. E = -818.290585 Ha
C     4.37693   2.40559  -0.59613
N     3.59294   1.19881  -0.43997
C     2.26868   1.23662  -0.25355
O     1.61319   2.29967  -0.22159
C     1.55233  -0.05846  -0.07313
N     0.21704   0.16424  -0.01121
C    -0.87004  -0.59100  -0.16328
C    -0.75424  -1.88435  -0.73812
N    -0.70133  -2.92145  -1.26639
C    -2.19589  -0.05268   0.14766
C    -2.33663   1.10788   0.93655
C    -3.60059   1.63778   1.18836
C    -4.74403   1.01144   0.68034
C    -4.61478  -0.15397  -0.08319
C    -3.35444  -0.68459  -0.34902
C     2.22194  -1.30879   0.24426
C     1.52329  -2.37051   1.05832
O     3.42288  -1.46966  -0.03769
H     5.41542   2.12776  -0.81338
H     4.36060   3.02263   0.31734
H     3.99438   3.02239  -1.42457
H     4.02074   0.27116  -0.43325
H     0.05216   1.18444   0.08862
H    -1.46090   1.58900   1.37668
H    -3.69356   2.53761   1.80014
H    -5.73344   1.42475   0.88777
H    -5.50256  -0.65193  -0.47881
H    -3.26428  -1.58797  -0.95512
H     2.24240  -2.71330   1.81684
H     1.27044  -3.23536   0.42555
H     0.60642  -2.02485   1.55455
