31
Generated by autodE on: 2022-07-27. E = -818.286767 Ha
C    -1.48393   2.22520   1.16812
N    -2.43894   1.13979   1.28429
C    -2.56852   0.06559   0.47968
O    -3.45972  -0.77862   0.63865
C    -1.62427  -0.04214  -0.67347
N    -0.29109  -0.14420  -0.55079
C     0.55613  -0.29727   0.47166
C     0.04651  -0.59961   1.76056
N    -0.33454  -0.88316   2.82524
C     2.00544  -0.22272   0.26268
C     2.88561  -0.73644   1.23728
C     4.26461  -0.68700   1.04219
C     4.79446  -0.12749  -0.12537
C     3.92980   0.39399  -1.09370
C     2.54956   0.35843  -0.90164
C    -2.07533  -0.04201  -2.06075
C    -3.54460   0.09793  -2.34263
O    -1.23770  -0.13047  -2.97161
H    -1.16593   2.34393   0.12442
H    -0.59288   2.06808   1.79802
H    -1.96343   3.16193   1.48377
H    -3.05342   1.13666   2.09627
H     0.13618  -0.12364  -1.49417
H     2.48448  -1.18652   2.14747
H     4.93029  -1.09354   1.80679
H     5.87542  -0.08969  -0.27646
H     4.33274   0.84844  -2.00148
H     1.90205   0.81067  -1.65609
H    -4.08237  -0.78516  -1.96591
H    -3.95923   0.97489  -1.82069
H    -3.70235   0.19700  -3.42400
