20
Generated by autodE on: 2022-06-04. E = -610.059753 Ha
F     2.39746  -0.07976   0.50728
C     1.44775  -0.08978  -0.45695
F     1.55573   1.10247  -1.09417
F     1.79927  -1.04080  -1.34155
C     0.09037  -0.29206   0.09986
C    -0.81859  -1.20579  -0.27949
C    -2.10699  -0.87066   0.44586
C    -2.63469   0.44412  -0.22432
C    -1.58290   1.50521   0.20908
C    -0.58029   0.66976   1.06907
C    -1.54894  -0.30532   1.77165
H    -0.70092  -1.96936  -1.04989
H    -2.84778  -1.67733   0.50720
H    -3.63390   0.68536   0.16762
H    -2.71758   0.33986  -1.31551
H    -1.07915   1.98822  -0.63956
H    -2.03949   2.29316   0.82611
H     0.09545   1.26239   1.69797
H    -1.03025  -1.06330   2.37700
H    -2.31046   0.20429   2.38156
