51
Generated by autodE on: 2022-06-04. E = -1428.331437 Ha. Imaginary frequency = -312.6 cm-1
C    -2.83075   3.04015   2.87943
N    -2.02645   2.66117   1.73604
C    -2.41951   1.67597   0.89907
O    -3.56646   1.22182   0.92683
C    -1.39844   1.25964  -0.12046
C    -1.79050   1.29743  -1.55454
C    -3.20959   1.01841  -1.95203
O    -0.92623   1.53311  -2.40111
N    -0.07353   1.57621   0.05435
C     0.76957   1.06124   1.00099
C     0.32029   1.02697   2.36910
N     0.01490   0.96517   3.48894
C     2.23673   1.18215   0.80925
C     2.79491   1.66610  -0.38771
C     4.17867   1.67707  -0.56802
C     5.02930   1.20785   0.43690
C     4.48319   0.73149   1.63281
C     3.10204   0.72099   1.81952
C     0.35024  -1.09661   0.71832
C     1.31508  -1.61800  -0.33336
C     1.00788  -3.14789  -0.43595
C    -0.36630  -3.18288  -1.16562
C    -0.73337  -1.66970  -1.29064
C     0.66502  -1.10836  -1.62981
C    -0.93345  -1.13598   0.13326
C    -2.09153  -1.59462   0.96159
F    -1.94936  -2.89741   1.34794
F    -3.26480  -1.54805   0.30385
F    -2.22185  -0.90840   2.11261
H    -3.82709   3.38923   2.56794
H    -2.96593   2.18870   3.56702
H    -2.32343   3.85115   3.41572
H    -1.09458   3.04936   1.65338
H    -3.58002   0.10360  -1.47347
H    -3.86032   1.84098  -1.61582
H    -3.25829   0.93396  -3.04518
H     0.36148   1.72264  -0.86245
H     2.17034   2.05014  -1.19566
H     4.59222   2.05967  -1.50354
H     6.11147   1.21674   0.29005
H     5.13584   0.36358   2.42748
H     2.68978   0.33587   2.75364
H     0.50399  -1.33814   1.77174
H     2.37133  -1.37672  -0.16609
H     1.79139  -3.64841  -1.02389
H     0.97534  -3.62324   0.55527
H    -0.26615  -3.59945  -2.17871
H    -1.12649  -3.76900  -0.63671
H    -1.54609  -1.46054  -1.99583
H     0.70761  -0.02563  -1.76425
H     1.08580  -1.58095  -2.52904
