36
Generated by autodE on: 2022-05-29. E = -1173.650210 Ha
C     2.47263  -1.94920   1.68777
C     1.38973  -1.95059   0.65499
O     0.89541  -2.94604   0.18011
C     0.96950  -0.54803   0.07232
C     1.86783  -0.44133  -1.10715
N     2.68873  -0.38249  -1.92463
N     1.22253   0.55367   0.99660
C     0.41884   1.69885   0.59325
C     0.99804   2.44356  -0.56030
N     1.47604   2.99544  -1.46024
C     0.29056   2.67559   1.69397
N     0.20028   3.46817   2.53367
C    -0.94115   1.05677   0.18691
C    -2.00272   0.86685   1.29723
C    -1.42526   0.21421   2.56853
C    -1.13651  -1.24087   2.11102
C    -1.55749  -1.25285   0.62477
C    -2.78630  -0.31328   0.69953
C    -0.57223  -0.40809  -0.25243
C    -0.83112  -0.64566  -1.74843
F    -2.13335  -0.68756  -2.06092
F    -0.29240   0.33530  -2.50330
F    -0.29756  -1.80605  -2.16499
H     2.16678  -1.37529   2.57447
H     2.71481  -2.98203   1.96625
H     3.36516  -1.45116   1.27286
H     2.21161   0.77167   1.12465
H    -1.38548   1.63407  -0.63133
H    -2.56858   1.78893   1.47850
H    -2.19003   0.24111   3.35786
H    -0.53516   0.71434   2.96607
H    -1.76715  -1.96336   2.64799
H    -0.10126  -1.53800   2.30275
H    -1.72356  -2.25674   0.21941
H    -3.25972  -0.08975  -0.26143
H    -3.54760  -0.70205   1.39069
