16
Generated by autodE on: 2022-05-29. E = -563.553540 Ha
C    -3.42540   0.74825   0.04262
C    -1.99077   1.14313   0.17064
O    -1.60636   2.28158   0.40926
C    -0.95625   0.08475  -0.00550
C    -1.28275  -1.26265  -0.27728
N    -1.61846  -2.35615  -0.49859
N     0.29128   0.53552   0.11430
C     1.50449  -0.02845   0.03382
C     1.69493  -1.40918  -0.22572
N     1.90625  -2.53528  -0.43385
C     2.64914   0.79026   0.21725
N     3.60175   1.44399   0.36428
H    -3.60468   0.30158  -0.94901
H    -4.06773   1.62580   0.18271
H    -3.66916  -0.02259   0.79188
H     0.26955   1.55608   0.31145
