51
Generated by autodE on: 2022-06-24. E = -1109.717076 Ha
C    -2.51631  -0.76003   2.31893
N    -1.77119  -1.06240   1.11922
C    -2.18463  -0.75429  -0.11878
O    -3.33826  -0.39769  -0.39449
C    -1.10203  -0.88403  -1.21705
C    -1.69391  -1.67237  -2.39206
C    -0.62586   0.53988  -1.71419
C     0.65484   0.81426  -0.91963
C     0.39205   1.37455   0.48918
C    -0.81236   2.28107   0.53330
C    -1.12175   3.08969   1.71786
N    -0.32179   2.90376   2.80200
O    -2.06547   3.90673   1.77041
C    -1.67798   2.35193  -0.52050
N    -1.57530   1.62893  -1.66127
C    -2.60896   1.71242  -2.67928
C     1.28437  -0.59073  -0.92138
C     2.43297  -0.74664   0.05399
C     2.26060  -1.23528   1.35679
C     3.33902  -1.29249   2.24549
C     4.60653  -0.85924   1.84565
C     4.78995  -0.37461   0.54606
C     3.71169  -0.32458  -0.34054
N     0.14014  -1.46376  -0.65947
C     0.38055  -2.87879  -0.85881
H    -2.42764  -1.57823   3.04868
H    -2.14840   0.16824   2.78985
H    -3.57526  -0.62575   2.06369
H    -0.77780  -1.29152   1.16194
H    -2.54686  -1.12987  -2.81825
H    -0.93898  -1.79942  -3.18125
H    -2.04754  -2.66547  -2.08058
H    -0.34658   0.40355  -2.76858
H     1.28708   1.51664  -1.47938
H     0.27746   0.55560   1.21592
H     1.29275   1.92260   0.81182
H     0.44144   2.23961   2.81168
H    -0.51202   3.43844   3.64197
H    -2.52273   3.04213  -0.47153
H    -3.01890   2.73154  -2.70484
H    -2.17525   1.48886  -3.66500
H    -3.43251   1.00657  -2.48799
H     1.69185  -0.77158  -1.93809
H     1.27720  -1.58022   1.67920
H     3.18635  -1.67901   3.25623
H     5.44868  -0.90425   2.54041
H     5.77759  -0.03860   0.22050
H     3.85931   0.04968  -1.35743
H    -0.49070  -3.46575  -0.53436
H     0.60744  -3.14469  -1.91036
H     1.23702  -3.19519  -0.24583
