20
Generated by autodE on: 2022-06-24. E = -457.715324 Ha
C    -3.17916   0.06147   0.01618
N    -1.79198  -0.37338   0.02464
C    -1.49589  -1.73009   0.20677
C    -0.23829  -2.19536   0.27122
C     0.97628  -1.30773   0.15465
C     0.55818   0.14295  -0.02149
C     1.55822   1.21484  -0.14689
N     2.85674   0.82543  -0.08824
O     1.26397   2.41822  -0.29802
C    -0.75498   0.50473  -0.07215
H    -3.22090   1.13780  -0.19241
H    -3.66345  -0.12696   0.98884
H    -3.75047  -0.46858  -0.76235
H    -2.36671  -2.38280   0.29071
H    -0.08783  -3.26817   0.41196
H     1.62222  -1.42762   1.04836
H     1.61220  -1.64185  -0.69098
H     3.58024   1.53083  -0.17292
H     3.13247  -0.14134   0.02705
H    -1.02613   1.55408  -0.19907
