34
Generated by autodE on: 2022-05-26. E = -894.681880 Ha
C    -3.13794   1.67084  -1.72480
C    -1.92353   1.68809  -0.84540
O    -1.36952   2.71554  -0.50781
C    -1.42396   0.31650  -0.31243
C    -2.22003   0.07186   0.97957
C    -3.20076  -1.05878   1.00915
O    -2.02671   0.81032   1.92856
N    -1.62049  -0.70642  -1.33780
N    -0.52434  -0.40030  -2.22854
C     0.67564  -0.16494  -1.41167
C     1.42389  -1.44782  -0.91886
O     0.58392  -1.88954   0.16167
C     0.66182  -0.68131   0.92880
C     2.18134  -0.47271   0.98294
C     2.88176   0.22070   1.99326
N     3.44619   0.79245   2.83865
C     2.66391  -0.95267  -0.18816
C     4.02428  -0.90599  -0.76768
C     0.11037   0.37924  -0.06663
H    -3.48371   2.69833  -1.89637
H    -3.93556   1.06629  -1.26577
H    -2.88698   1.19401  -2.68361
H    -2.64970  -2.01320   0.95383
H    -3.86276  -1.02035   0.13137
H    -3.78058  -1.02654   1.94032
H    -1.42776  -1.60682  -0.88676
H    -0.40733  -1.17458  -2.88195
H     1.35786   0.51775  -1.93383
H     1.56377  -2.23166  -1.67210
H     0.14728  -0.77511   1.88932
H     4.75019  -0.44974  -0.08045
H     4.36333  -1.92071  -1.03553
H     4.00798  -0.32445  -1.70592
H     0.42719   1.39205   0.19577
