17
Generated by autodE on: 2022-07-26. E = -455.469866 Ha
C     0.27232   2.02221  -1.47190
C    -0.11324   1.31324  -0.19934
O    -0.56644   1.96061   0.74927
C     0.05544  -0.13652  -0.09896
N     0.54044  -0.92085  -1.09869
N     0.93428  -0.63357  -2.26609
C    -0.26606  -0.96171   1.07996
C    -0.82030  -0.34451   2.32996
O    -0.07100  -2.18477   1.02351
H     0.07606   3.09458  -1.34209
H    -0.29777   1.63106  -2.32802
H     1.33367   1.85443  -1.70955
H     0.55430  -1.90830  -0.75454
H     1.22426  -1.51822  -2.70176
H    -0.13161   0.41629   2.72499
H    -1.76675   0.17399   2.11863
H    -0.97793  -1.13865   3.07155
