17
Generated by autodE on: 2022-05-26. E = -439.145382 Ha
C     2.15567  -1.16646   0.19037
C     0.80931  -0.63171  -0.10103
C     0.33545   0.63319  -0.14664
C     1.02833   1.83858   0.07304
N     1.59038   2.84651   0.24841
C    -1.19861   0.48358  -0.38401
C    -1.78837  -0.12747   0.90442
C    -1.31356  -1.37622   0.94131
C    -0.44951  -1.50594  -0.33081
O    -1.18259  -0.66702  -1.24075
H     2.49902  -1.81673  -0.63193
H     2.11262  -1.80280   1.09222
H     2.89210  -0.36708   0.35235
H    -1.71172   1.33954  -0.83301
H    -2.40123   0.40882   1.62795
H    -1.42531  -2.14613   1.70364
H    -0.27432  -2.50985  -0.73194
