34
Generated by autodE on: 2022-05-26. E = -894.608796 Ha. Imaginary frequency = -382.4 cm-1
C    -1.93375   2.61956  -1.93820
C    -2.02521   1.94353  -0.59199
O    -2.21134   2.62577   0.41594
C    -1.91194   0.47425  -0.50001
C    -2.45224  -0.32338   0.62894
C    -2.82738   0.33253   1.92508
O    -2.54987  -1.54577   0.49593
N    -1.61285  -0.30458  -1.57518
N    -0.70646   0.08045  -2.43489
C     0.94989   0.36921  -1.22721
C     1.48461  -1.07331  -1.08548
O     0.50719  -1.62462  -0.18877
C     0.67194  -0.63841   0.84119
C     2.20835  -0.74964   1.05720
C     2.89353  -0.50713   2.26356
N     3.44419  -0.30807   3.27312
C     2.72275  -1.01065  -0.16673
C     4.11790  -1.12934  -0.63926
C     0.44048   0.65214   0.04007
H    -2.42098   3.60080  -1.85481
H    -2.38552   2.02596  -2.74362
H    -0.87581   2.77174  -2.20028
H    -1.97476   0.88983   2.33839
H    -3.63399   1.06420   1.77121
H    -3.15058  -0.44658   2.62787
H    -1.74128  -1.30447  -1.36689
H    -0.47479  -0.73695  -3.01262
H     1.40926   1.09635  -1.89433
H     1.59289  -1.67009  -1.99754
H     0.04502  -0.83868   1.71504
H     4.84369  -1.02056   0.17844
H     4.27381  -2.10100  -1.13781
H     4.31697  -0.35451  -1.40073
H     0.36680   1.63277   0.50577
