20
Generated by autodE on: 2022-06-21. E = -457.715323 Ha
C     3.10654  -0.56118  -0.36148
N     1.81153   0.08972  -0.24871
C     1.74703   1.48504  -0.14611
C     0.59371   2.14519   0.04351
C    -0.74184   1.45395   0.16621
C    -0.57116  -0.05300   0.06270
C    -1.72419  -0.96238   0.15939
N    -2.93416  -0.37515   0.33907
O    -1.62914  -2.20458   0.08531
C     0.65428  -0.61895  -0.12679
H     3.67702  -0.14613  -1.20685
H     2.95908  -1.63466  -0.53393
H     3.70429  -0.43141   0.55659
H     2.70679   1.99714  -0.23562
H     0.62357   3.23538   0.10667
H    -1.43649   1.82836  -0.61374
H    -1.22793   1.73291   1.12363
H    -3.75486  -0.96682   0.40777
H    -3.05508   0.62801   0.39404
H     0.74893  -1.70384  -0.19451
