27
Generated by autodE on: 2022-06-21. E = -744.607826 Ha
C     3.48948   1.91176   0.55102
O     2.36755   1.05894   0.30498
C     2.64718  -0.24110   0.06272
O     3.79404  -0.68166   0.04495
C     1.47873  -1.04576  -0.18045
C     1.61602  -2.42657  -0.38172
N     1.79796  -3.57480  -0.52507
O     0.28016  -0.39317  -0.07972
C    -0.93343  -0.70598  -0.37084
C    -1.24686  -2.01434  -0.98520
C    -1.90500   0.32925  -0.05806
C    -3.28403   0.13050  -0.28700
C    -4.19998   1.13292   0.02540
C    -3.76064   2.34529   0.56549
C    -2.39390   2.55486   0.79674
C    -1.47298   1.56040   0.49309
H     4.04559   1.58276   1.44151
H     3.07624   2.91384   0.71731
H     4.16918   1.92486  -0.31392
H    -1.05496  -2.82979  -0.26873
H    -2.28728  -2.07523  -1.31436
H    -0.58442  -2.17715  -1.85085
H    -3.64785  -0.80707  -0.70574
H    -5.26381   0.96566  -0.15435
H    -4.48185   3.12883   0.80825
H    -2.04905   3.50109   1.21865
H    -0.41062   1.72256   0.67468
