47
Generated by autodE on: 2022-06-21. E = -1202.325468 Ha. Imaginary frequency = -222.7 cm-1
C     3.01703   1.80618   2.28337
O     2.06773   1.69162   1.22490
C     2.52575   1.15368   0.06249
O     3.72061   0.87549  -0.09719
C     1.51324   0.95652  -0.92325
C     1.89924   0.69178  -2.24411
N     2.26414   0.45573  -3.33496
O     0.21403   1.29495  -0.56802
C    -0.88157   0.55738  -0.84556
C    -1.11063   0.15502  -2.27638
C    -2.04277   1.06659  -0.07390
C    -3.36206   0.73030  -0.43342
C    -4.44053   1.17775   0.32842
C    -4.22422   1.96737   1.46235
C    -2.91981   2.32163   1.82043
C    -1.83774   1.88298   1.05723
C    -0.41014  -1.29153   0.15668
C    -1.71349  -1.99954  -0.08651
N    -2.64145  -1.92136   0.89242
O    -1.92736  -2.64146  -1.12596
C    -0.03403  -0.90620   1.58751
C     1.37583  -1.26277   1.94792
C     2.23812  -1.82080   1.09299
N     1.85849  -2.10755  -0.23572
C     2.91105  -2.51326  -1.16625
C     0.63931  -1.82676  -0.65902
H     3.44529   0.82509   2.53756
H     2.46620   2.20523   3.14409
H     3.83282   2.49306   2.01171
H    -1.40407   1.05670  -2.83938
H    -1.91047  -0.58580  -2.36477
H    -0.21387  -0.25983  -2.74288
H    -3.55214   0.10568  -1.30552
H    -5.45674   0.90483   0.03572
H    -5.07095   2.31351   2.05959
H    -2.74262   2.95159   2.69501
H    -0.82639   2.18847   1.32176
H    -3.56501  -2.28588   0.67823
H    -2.58736  -1.21957   1.62170
H    -0.69942  -1.39654   2.31626
H    -0.17863   0.17461   1.76076
H     1.70571  -1.06203   2.96910
H     3.26506  -2.08150   1.34409
H     3.63305  -1.69136  -1.27214
H     3.42731  -3.40054  -0.77447
H     2.46819  -2.73949  -2.14262
H     0.41067  -2.13437  -1.67942
