37
Generated by autodE on: 2022-05-31. E = -1600.961433 Ha
C    -4.26881  -1.79030  -1.19137
O    -3.33623  -1.06843  -0.36816
C    -2.27725  -0.55439  -0.97542
O    -2.06944  -0.59888  -2.16600
C    -1.33440   0.12205   0.05115
C    -1.88925   1.53027   0.28934
O    -2.37993   2.18469  -0.60515
O    -1.72124   1.93963   1.53293
C    -2.13751   3.28569   1.83338
O    -1.29956  -0.59632   1.26725
C    -0.28602  -1.60145   1.19628
C     0.13184  -1.94888   2.61834
C    -0.86846  -2.80714   0.54510
N    -1.33956  -3.73646   0.03586
C     0.81798  -1.02155   0.26335
C     1.95326  -0.25590   1.00736
O     1.32554   0.98630   1.32569
C     0.98360   1.35680  -0.01153
C     2.33525   1.20122  -0.72755
C     2.75208   1.87335  -1.89513
N     3.08069   2.44047  -2.85787
C     2.92951   0.17690  -0.08026
Cl    4.37757  -0.64062  -0.44989
C     0.11637   0.15152  -0.48770
H    -3.76976  -2.65946  -1.64310
H    -5.07094  -2.11697  -0.52057
H    -4.66765  -1.13725  -1.97998
H    -3.21239   3.40123   1.63740
H    -1.56901   4.00060   1.22225
H    -1.92210   3.43311   2.89715
H     0.46505  -1.03516   3.12698
H     0.94564  -2.68703   2.60860
H    -0.72509  -2.36666   3.16442
H     1.22431  -1.79466  -0.39715
H     2.39214  -0.74153   1.88254
H     0.53164   2.35172  -0.06084
H     0.11505   0.06139  -1.57711
