23
Generated by autodE on: 2022-05-31. E = -741.398520 Ha
C     3.25583  -2.31731   0.71910
O     1.96550  -1.77104   0.42482
C     1.88198  -0.42711   0.40109
O     2.84263   0.30051   0.60015
C     0.53272   0.04441   0.10746
O    -0.36290  -0.94087  -0.02424
C    -1.56387  -1.15576  -0.41460
C    -2.06154  -2.55276  -0.32016
C    -2.40559  -0.16484  -0.99926
N    -3.17981   0.49077  -1.57240
C     0.17380   1.45638   0.12338
O     0.95568   2.38696   0.02520
O    -1.14445   1.61806   0.31682
C    -1.66641   2.94930   0.24504
H     3.99339  -2.00149  -0.03339
H     3.59670  -1.99900   1.71546
H     3.13456  -3.40668   0.69331
H    -2.88386  -2.61007   0.41423
H    -2.46470  -2.88381  -1.29092
H    -1.24209  -3.21098  -0.00403
H    -2.75279   2.85368   0.35299
H    -1.25554   3.56575   1.05731
H    -1.42085   3.40691  -0.72416
