37
Generated by autodE on: 2022-05-31. E = -1600.841802 Ha. Imaginary frequency = -89.5 cm-1
C    -3.83487  -2.56518  -1.42232
O    -3.22424  -1.74819  -0.41447
C    -2.75381  -0.55462  -0.79426
O    -2.95447  -0.06616  -1.89141
C    -2.00272   0.08892   0.28910
C    -2.04628   1.53870   0.48142
O    -2.48405   2.32636  -0.34225
O    -1.51529   1.91744   1.65352
C    -1.43355   3.32763   1.88968
O    -1.47382  -0.58590   1.30975
C    -0.90891  -1.73953   1.47328
C    -0.20226  -1.93781   2.76790
C    -1.10351  -2.86551   0.61982
N    -1.13933  -3.86354   0.01894
C     0.98479  -1.04447  -0.36216
C     1.97332  -0.41393   0.63821
O     1.24519   0.75188   1.04067
C     1.00425   1.24913  -0.28248
C     2.47371   1.32355  -0.80345
C     2.99007   2.23175  -1.74487
N     3.40226   2.99645  -2.52235
C     3.06913   0.26467  -0.21635
Cl    4.64651  -0.34284  -0.41295
C     0.36788   0.01025  -0.94522
H    -4.10279  -3.50492  -0.92701
H    -4.73325  -2.07253  -1.81976
H    -3.12479  -2.75562  -2.23987
H    -2.43449   3.78286   1.88339
H    -0.80839   3.81159   1.12475
H    -0.97320   3.44008   2.87809
H     0.13704  -0.96543   3.14843
H     0.65451  -2.61291   2.63285
H    -0.88029  -2.39858   3.50826
H     1.00397  -2.08488  -0.67652
H     2.32230  -1.01539   1.48254
H     0.45358   2.19309  -0.29139
H    -0.25252   0.03929  -1.83808
