61
Generated by autodE on: 2022-06-09. E = -1622.397913 Ha
C     4.39623  -2.16211   0.56517
N     3.14706  -1.70325  -0.00211
C     2.67659  -0.46904   0.19980
O     3.29386   0.43250   0.77106
C     1.26904  -0.22055  -0.43780
C     1.62679   0.59050  -1.71070
O     1.41335   0.17552  -2.83137
O     2.24137   1.73166  -1.45017
C     2.56238   2.57127  -2.57000
N     0.63584  -1.45949  -0.85456
C    -0.68324  -1.69011  -0.28193
C    -1.69992  -1.84026  -1.50789
C    -2.96672  -2.63459  -1.34662
O    -1.29186  -1.52812  -2.61359
C    -0.78522  -3.06139   0.42708
C     0.19959  -4.12432   0.04731
O    -1.69085  -3.26771   1.21631
C    -0.97879  -0.49880   0.69041
C    -2.30334   0.20688   0.35328
O    -2.89079  -0.00903  -0.71444
N    -2.77497   1.08088   1.25123
C    -3.87361   1.96960   0.92651
C    -0.94293  -0.79632   2.25151
C     0.26021  -1.64192   2.61724
C     1.31094  -0.82465   2.50926
C     0.74628   0.51882   2.07685
O    -0.53587   0.50171   2.73247
C     0.28043   0.50186   0.56291
C    -0.13829   1.89756   0.08254
C     0.01657   3.05146   0.86109
C    -0.38108   4.30428   0.38119
C    -0.94139   4.43246  -0.89016
C    -1.10738   3.28866  -1.67700
C    -0.71646   2.04113  -1.19256
H     4.28082  -2.44374   1.62613
H     4.75125  -3.03833   0.00731
H     5.15042  -1.36594   0.50217
H     2.46949  -2.36068  -0.38610
H     3.04841   3.45798  -2.14861
H     3.24185   2.04962  -3.25829
H     1.64179   2.85525  -3.09988
H     0.54591  -1.45209  -1.87407
H    -3.67169  -2.33099  -2.13083
H    -3.41999  -2.53410  -0.35668
H    -2.71461  -3.69788  -1.50418
H     1.17222  -3.89647   0.51068
H     0.35886  -4.14708  -1.04045
H    -0.15493  -5.09685   0.41192
H    -2.14924   1.32846   2.01627
H    -3.59044   2.67768   0.12935
H    -4.74724   1.39764   0.58352
H    -4.14917   2.53620   1.82442
H    -1.90598  -1.09111   2.67223
H     0.23953  -2.69064   2.90259
H     2.35959  -1.04008   2.69572
H     1.33606   1.38947   2.36188
H     0.44373   3.00149   1.86087
H    -0.24686   5.18513   1.01338
H    -1.24879   5.41162  -1.26417
H    -1.54744   3.36335  -2.67400
H    -0.86747   1.16690  -1.82353
