31
Generated by autodE on: 2022-07-27. E = -875.546946 Ha
C     3.86061  -0.47334   1.41071
N     2.76697   0.32082   0.89091
C     1.61896  -0.25272   0.48922
O     1.40008  -1.47041   0.62594
C     0.62168   0.61995  -0.16861
N    -0.60648   0.14768  -0.43773
C    -1.31939  -0.87854   0.00951
C    -2.59192  -1.04762  -0.72408
C    -3.55698  -2.11242  -0.29570
O    -2.83402  -0.29521  -1.67142
C    -0.98430  -1.55757   1.30696
C    -0.99133  -3.05742   1.38371
O    -0.80740  -0.85531   2.29233
C     0.95805   1.91573  -0.76110
O     2.02466   2.50055  -0.61179
O    -0.04850   2.42426  -1.48907
C     0.17536   3.69184  -2.12138
H     3.50174  -1.15050   2.19914
H     4.33418  -1.08881   0.62668
H     4.61756   0.19782   1.83493
H     2.92220   1.28750   0.60589
H    -1.12468   0.66874  -1.16841
H    -3.77045  -2.04656   0.78228
H    -3.12504  -3.10777  -0.48594
H    -4.48730  -2.00736  -0.86782
H    -0.22516  -3.37313   2.10493
H    -0.81325  -3.52360   0.40612
H    -1.96908  -3.39455   1.76413
H     1.01353   3.62595  -2.82988
H    -0.75309   3.92973  -2.65268
H     0.39094   4.46229  -1.36735
