31
Generated by autodE on: 2022-06-09. E = -875.546914 Ha
C     2.53533  -2.94599  -1.42064
N     2.17967  -1.56499  -1.16879
C     1.05958  -1.24487  -0.49722
O     0.22856  -2.10165  -0.14277
C     0.86318   0.17924  -0.15045
N    -0.29983   0.58080   0.38955
C    -1.51929   0.06128   0.44632
C    -2.43069   0.84879   1.30492
C    -3.86893   0.44303   1.42683
O    -1.98152   1.83331   1.89725
C    -1.95752  -1.01447  -0.50820
C    -2.70988  -2.20624   0.01039
O    -1.77063  -0.82933  -1.70236
C     1.95034   1.15915  -0.14019
O     3.07209   0.96904  -0.59614
O     1.58625   2.32476   0.41725
C     2.58060   3.35585   0.48739
H     1.69271  -3.48261  -1.88030
H     2.80910  -3.47832  -0.49362
H     3.39083  -2.97293  -2.10675
H     2.87106  -0.82489  -1.28774
H    -0.25618   1.48066   0.90202
H    -3.94227  -0.52127   1.95448
H    -4.41301   1.20791   1.99494
H    -4.33051   0.31186   0.43602
H    -2.49599  -2.40297   1.06877
H    -3.79106  -2.02717  -0.10562
H    -2.44783  -3.07891  -0.60325
H     2.92599   3.62316  -0.52149
H     2.08968   4.21372   0.96054
H     3.43619   3.02468   1.09330
