30
Generated by autodE on: 2022-06-09. E = -746.806764 Ha
C    -1.24946   2.33367  -0.06319
N    -0.54908   2.21398  -1.32791
C    -0.09605   1.09727  -1.93494
O     0.42155   1.13265  -3.06377
C    -0.27005  -0.20917  -1.25565
C     0.06752  -0.67913  -0.03678
C     0.73681  -0.05941   1.10040
C     0.43878  -0.48622   2.40996
C     1.03876   0.12676   3.51127
C     1.95950   1.16258   3.32519
C     2.28074   1.57957   2.02770
C     1.67892   0.97467   0.92547
C    -0.49168  -2.13681  -0.03165
C    -2.03006  -2.03240  -0.02613
C    -2.34289  -1.56560  -1.23938
C    -0.98688  -1.39240  -1.95583
O    -0.25329  -2.49847  -1.40153
H    -2.02921   3.10322  -0.15480
H    -1.73264   1.38463   0.19705
H    -0.57534   2.62004   0.75981
H    -0.36766   3.07186  -1.84470
H    -0.28292  -1.29080   2.56647
H     0.78715  -0.20792   4.52034
H     2.43288   1.63810   4.18727
H     3.01129   2.37737   1.87471
H     1.95257   1.28993  -0.08280
H    -0.02357  -2.83495   0.66982
H    -2.67000  -2.23941   0.83088
H    -3.31103  -1.28270  -1.65114
H    -0.97811  -1.38397  -3.05061
