61
Generated by autodE on: 2022-06-09. E = -1622.324514 Ha. Imaginary frequency = -236.2 cm-1
C     4.50626  -1.31315   0.73610
N     3.49329  -0.60028  -0.01000
C     2.31282  -1.17325  -0.30614
O     2.03693  -2.32954   0.05681
C     1.35715  -0.39571  -1.12213
C     1.79549   0.77021  -1.89723
O     2.77256   1.46216  -1.62949
O     0.98669   1.03889  -2.92691
C     1.29599   2.18667  -3.72903
N     0.17987  -0.95114  -1.50143
C    -0.71203  -1.68999  -0.79430
C    -1.99845  -1.81080  -1.63954
C    -2.99363  -2.88637  -1.31714
O    -2.07658  -1.14526  -2.66589
C    -0.35352  -3.02184  -0.14416
C     0.24986  -4.05802  -1.06402
O    -0.76275  -3.32223   0.96262
C    -1.05613  -0.31295   0.92132
C    -2.54834  -0.03764   0.75582
O    -3.25964  -0.43484  -0.17365
N    -3.06369   0.71048   1.74640
C    -4.46640   1.07167   1.77987
C    -0.73223  -0.84364   2.37884
C     0.69098  -1.36160   2.48933
C     1.47362  -0.28108   2.40486
C     0.52070   0.88065   2.21672
O    -0.59107   0.44779   3.04533
C    -0.16611   0.79499   0.81539
C    -0.30347   1.96893  -0.03272
C    -1.26846   2.03953  -1.06717
C    -1.41582   3.19353  -1.83387
C    -0.59797   4.30548  -1.61048
C     0.38626   4.24244  -0.61733
C     0.53631   3.09383   0.15538
H     4.14315  -1.60389   1.73552
H     4.81677  -2.23400   0.21577
H     5.38123  -0.66257   0.85543
H     3.65872   0.34170  -0.36040
H     1.36806   3.08546  -3.10415
H     2.24399   2.02663  -4.26288
H     0.46993   2.28525  -4.44171
H    -0.30126  -0.45182  -2.26371
H    -2.68052  -3.80634  -1.83914
H    -3.97646  -2.59177  -1.70471
H    -3.05355  -3.09919  -0.24495
H     0.90512  -4.71854  -0.48125
H    -0.57710  -4.66745  -1.46590
H     0.80152  -3.61656  -1.90091
H    -2.42517   1.02767   2.47447
H    -4.73632   1.70405   0.91854
H    -4.66650   1.62804   2.70385
H    -5.10819   0.17716   1.75652
H    -1.52567  -1.44447   2.82935
H     0.97196  -2.40776   2.56276
H     2.55716  -0.20868   2.39530
H     0.86619   1.87491   2.50853
H    -1.91157   1.18762  -1.27602
H    -2.17488   3.22057  -2.61912
H    -0.71613   5.20836  -2.21361
H     1.04659   5.09574  -0.44587
H     1.32126   3.06478   0.91112
