29
Generated by autodE on: 2022-10-06. E = -1136.118400 Ha
C     4.45608  -0.10189  -0.72253
O     3.09777   0.31339  -0.51774
C     2.34436  -0.47447   0.24441
O     2.75013  -1.43598   0.85824
C     0.93951   0.09773   0.34885
O     1.05108   1.36866   1.08756
C    -0.16998   1.59620   1.61427
O    -0.45308   2.54812   2.29029
C    -1.03086   0.43357   1.10510
C    -2.23670   0.20357   1.87745
N    -3.18546   0.06672   2.52967
C    -1.21555   0.80639  -0.42824
C    -2.44712   0.15739  -1.11241
O    -3.00673   0.85740  -1.98895
O    -2.80891  -0.97743  -0.71142
C     0.20109   0.43180  -0.96650
C     0.32085  -0.71415  -2.00154
O     1.23843  -1.55440  -1.79286
O    -0.45105  -0.68414  -2.98427
N     0.00218  -0.62145   1.19447
C    -0.36895  -1.99542   0.86149
H     4.98281  -0.19019   0.23816
H     4.91983   0.67407  -1.34186
H     4.47517  -1.06923  -1.24539
H    -1.36668   1.89031  -0.50350
H     0.67044   1.31094  -1.42925
H     0.53151  -2.61685   0.91416
H    -1.07450  -2.34814   1.62765
H    -0.85123  -2.10873  -0.11701
