10
Generated by autodE on: 2022-10-06. E = -455.046588 Ha
O     1.12686  -1.09885   0.12474
C     1.57988   0.07127  -0.02055
O     2.80439   0.37898  -0.08998
C     0.59890   1.21476  -0.12587
C    -0.74000   1.10361  -0.10318
C    -1.56480  -0.16361   0.03114
O    -1.90822  -0.49136   1.19625
O    -1.91046  -0.72605  -1.04007
H     1.05483   2.20569  -0.23440
H    -1.34006   2.01992  -0.19307
