41
Generated by autodE on: 2022-05-30. E = -1148.682260 Ha
C    -2.85161   3.31765   0.43977
O    -2.12761   2.15485   0.00069
C    -2.40904   0.99829   0.59308
O    -3.25304   0.85125   1.44591
C    -1.50491  -0.11673   0.07066
C    -1.02614   0.15427  -1.33971
C    -1.93635   0.12236  -2.45600
N    -2.70070   0.09782  -3.32872
N     0.21446   0.40757  -1.52174
C     0.89330   0.45959  -0.21066
C     1.09135   1.89568   0.07974
N     1.27819   3.02311   0.27425
C     2.27649  -0.19152  -0.21496
C     2.98354  -0.26680   0.99281
C     4.24602  -0.86079   1.02599
C     4.81165  -1.37324  -0.14650
C     4.11160  -1.28271  -1.35223
C     2.84644  -0.68857  -1.39058
C    -0.12524  -0.14183   0.82654
F    -0.15030   0.67027   1.95629
C    -0.01743  -1.60113   1.28313
C     0.08444  -2.56542   0.07829
C    -1.35229  -2.57239  -0.51626
C    -2.08787  -1.53670   0.35271
C    -1.47644  -1.82947   1.73828
H    -2.67261   3.48806   1.51053
H    -2.46137   4.15270  -0.15202
H    -3.92695   3.18426   0.25744
H     2.54883   0.14057   1.90811
H     4.79009  -0.92126   1.97106
H     5.79945  -1.83876  -0.11967
H     4.54980  -1.67576  -2.27232
H     2.29993  -0.61957  -2.33052
H     0.76656  -1.73012   2.03771
H     0.36872  -3.55950   0.44901
H     0.84636  -2.26991  -0.65159
H    -1.83284  -3.55202  -0.38627
H    -1.37613  -2.34677  -1.59141
H    -3.18061  -1.55814   0.27693
H    -1.65612  -2.86382   2.06378
H    -1.80568  -1.13868   2.52441
