23
Generated by autodE on: 2022-05-30. E = -600.129010 Ha
C     3.49738   1.15920  -0.11395
O     2.08350   1.04990  -0.31179
C     1.52812  -0.14911  -0.04807
O     2.18097  -1.10677   0.33813
C     0.08836  -0.14028  -0.28127
C    -0.79969  -1.07605   0.12237
F    -0.54299  -2.20243   0.77281
C    -2.20133  -0.58279  -0.09367
C    -2.39914   0.56251   0.96069
C    -1.42082   1.66876   0.46979
C    -0.76810   1.01845  -0.78948
C    -1.97247   0.24868  -1.37504
H     3.76203   2.19002  -0.37748
H     4.03612   0.45264  -0.76251
H     3.75983   0.95810   0.93525
H    -2.97762  -1.35697  -0.09441
H    -3.44420   0.90260   0.92983
H    -2.18588   0.21442   1.98105
H    -1.96198   2.58441   0.18932
H    -0.66360   1.93752   1.21955
H    -0.24776   1.71763  -1.45340
H    -2.82648   0.89795  -1.61831
H    -1.70819  -0.36780  -2.24629
