18
Generated by autodE on: 2022-07-27. E = -548.458923 Ha
N    -3.60311   0.05854  -3.07444
C    -2.70917   0.41574  -2.41010
C    -1.60122   0.94020  -1.76068
N    -1.06936   0.82644  -0.68069
C    -0.34573   0.73826   0.38718
C    -0.66330   1.62714   1.46049
N    -0.91064   2.34440   2.34282
C     0.75823  -0.23050   0.50172
C     1.52077  -0.28797   1.68247
C     2.57277  -1.19730   1.79093
C     2.87612  -2.05544   0.72938
C     2.11811  -2.00098  -0.44617
C     1.06334  -1.09767  -0.56370
H     1.29150   0.37973   2.51535
H     3.15885  -1.23378   2.71176
H     3.70003  -2.76695   0.81760
H     2.34859  -2.66963  -1.27840
H     0.47610  -1.06784  -1.48341
