41
Generated by autodE on: 2022-05-30. E = -1148.571828 Ha. Imaginary frequency = -362.6 cm-1
C    -3.02252   3.21214   0.54226
O    -2.12635   2.09340   0.59911
C    -2.64824   0.88433   0.36106
O    -3.82103   0.69999   0.09110
C    -1.63456  -0.19306   0.42680
C    -0.80940   0.34944  -1.49186
C    -1.74354   0.45542  -2.53028
N    -2.62280   0.47356  -3.29653
N     0.37297   0.63896  -1.37751
C     1.32584   0.75919  -0.44512
C     1.28804   1.94587   0.33772
N     1.27778   2.91571   0.98393
C     2.55071  -0.04195  -0.51432
C     3.55261   0.10789   0.46355
C     4.68617  -0.70337   0.43472
C     4.84292  -1.66454  -0.56983
C     3.85493  -1.80856  -1.55162
C     2.71694  -1.00575  -1.52862
C    -0.62531  -0.23414   1.39380
F    -0.30705   0.75993   2.22047
C    -0.39924  -1.66364   1.82428
C     0.21360  -2.47810   0.65324
C    -0.93063  -2.49298  -0.40077
C    -2.05219  -1.67395   0.28439
C    -1.88202  -2.14193   1.75339
H    -3.81971   3.10716   1.29207
H    -2.41104   4.09547   0.75900
H    -3.46899   3.29401  -0.45933
H     3.43440   0.85104   1.25484
H     5.45343  -0.58300   1.20276
H     5.73325  -2.29677  -0.59034
H     3.97353  -2.55209  -2.34298
H     1.94907  -1.12346  -2.29544
H     0.12969  -1.74802   2.78078
H     0.45033  -3.49196   1.00627
H     1.13922  -2.03020   0.27851
H    -1.29186  -3.51524  -0.58234
H    -0.62549  -2.07885  -1.37085
H    -3.04434  -1.78452  -0.16726
H    -1.99143  -3.22950   1.88964
H    -2.53956  -1.60762   2.45441
