25
Generated by autodE on: 2022-07-27. E = -701.700217 Ha
C     4.41920  -0.17267   0.37137
N     3.02207  -0.54673   0.29186
C     2.13004   0.21990  -0.37581
O     2.47535   1.25015  -0.97251
C     0.72042  -0.23272  -0.31871
C     0.35169  -1.24448   0.58780
N     0.11275  -2.12898   1.31388
N    -0.22826   0.28123  -1.16589
C     0.18963   0.80706  -2.49068
C    -1.53676   0.29974  -0.92979
C    -2.15281   0.26752   0.39178
O    -1.58644   0.38265   1.46744
O    -3.48989   0.17603   0.26806
C    -4.24783   0.23703   1.48213
H     4.91420  -0.22968  -0.61232
H     4.53040   0.85722   0.74431
H     4.92947  -0.85587   1.06117
H     2.72377  -1.41328   0.72692
H     0.44879   1.86628  -2.39201
H     1.05075   0.24338  -2.85899
H    -0.66004   0.69409  -3.17239
H    -2.18691   0.48680  -1.78174
H    -5.29818   0.12510   1.18918
H    -3.95429  -0.57630   2.16206
H    -4.09606   1.20328   1.98584
