25
Generated by autodE on: 2022-06-18. E = -701.701034 Ha
C    -3.85554   0.65809   2.07688
N    -3.11632   0.45712   0.84866
C    -1.77346   0.26997   0.81289
O    -1.08394   0.26824   1.84738
C    -1.19812   0.06674  -0.53530
C    -2.06984   0.02915  -1.64367
N    -2.84588   0.00703  -2.51839
N     0.14744  -0.10167  -0.78119
C     0.50424  -0.30325  -2.20909
C     1.08355  -0.09217   0.15638
C     2.52499  -0.26172  -0.02870
O     3.17028  -0.43527  -1.05213
O     3.10802  -0.19641   1.18451
C     4.53178  -0.34421   1.21884
H    -4.62115  -0.12301   2.20959
H    -3.16029   0.61678   2.92285
H    -4.35870   1.63833   2.08108
H    -3.63870   0.46611  -0.02096
H     0.16227   0.56892  -2.77910
H    -0.00542  -1.20458  -2.57059
H     1.58387  -0.41581  -2.29794
H     0.73205   0.05516   1.17252
H     4.82957  -1.32307   0.81461
H     5.01849   0.45150   0.63559
H     4.81761  -0.26801   2.27436
