34
Generated by autodE on: 2022-06-23. E = -840.608638 Ha
C     5.25563  -1.01008   1.14574
N     3.90124  -1.28351   0.70945
C     2.99727  -0.29525   0.56331
O     3.28551   0.89873   0.78655
C     1.63446  -0.66932   0.12095
C     1.22555  -2.04231  -0.28446
N     0.83543   0.38542   0.06995
C    -0.47015   0.60978  -0.20860
C    -0.76669   2.02421  -0.31963
O     0.08065   2.91631  -0.22646
O    -2.07241   2.29444  -0.51869
C    -2.42848   3.67315  -0.64423
C    -1.49514  -0.44821  -0.22999
C    -2.41451  -0.55355  -1.29162
C    -3.39767  -1.54357  -1.28830
C    -3.48345  -2.45130  -0.22645
C    -2.58190  -2.35294   0.83791
C    -1.60133  -1.35935   0.83993
H     5.82019  -1.95009   1.15963
H     5.27369  -0.57074   2.15661
H     5.75723  -0.30541   0.46411
H     3.62010  -2.24628   0.56726
H     0.77549  -2.61710   0.54360
H     2.09296  -2.60710  -0.65372
H     0.48505  -2.00396  -1.09461
H     1.35988   1.25780   0.26402
H    -3.51095   3.69144  -0.81934
H    -2.18770   4.22600   0.27615
H    -1.90316   4.13876  -1.49151
H    -2.34590   0.14397  -2.12795
H    -4.09735  -1.61265  -2.12489
H    -4.25125  -3.22858  -0.22746
H    -2.64675  -3.04928   1.67755
H    -0.91490  -1.27834   1.68515
