34
Generated by autodE on: 2022-07-27. E = -840.602313 Ha
C     4.76402   1.10284  -1.25440
N     3.41064   0.77601  -0.84795
C     3.02304  -0.52020  -0.70878
O     3.80959  -1.45729  -0.91629
C     1.61548  -0.77678  -0.32572
C     1.23583  -2.11923   0.18398
N     0.72640   0.18322  -0.55077
C    -0.60024   0.32496  -0.27971
C    -1.17213   1.43296  -1.01743
O    -0.53454   2.11002  -1.83072
O    -2.46026   1.68992  -0.72504
C    -3.07127   2.77609  -1.42621
C    -1.29785  -0.41499   0.78168
C    -2.58411  -0.95381   0.57722
C    -3.25012  -1.62094   1.60506
C    -2.64840  -1.76914   2.86034
C    -1.37528  -1.23474   3.07921
C    -0.70772  -0.56215   2.05383
H     5.50447   0.82839  -0.48354
H     5.02651   0.57006  -2.17956
H     4.82914   2.18284  -1.43661
H     2.87001   1.51134  -0.40453
H     2.01673  -2.83446  -0.10281
H     1.13399  -2.14548   1.28308
H     0.27044  -2.44073  -0.23482
H     1.05279   0.97502  -1.12362
H    -2.56046   3.72428  -1.20162
H    -3.04931   2.60294  -2.51246
H    -4.10900   2.81737  -1.07413
H    -3.05546  -0.85352  -0.40132
H    -4.24409  -2.03688   1.42278
H    -3.17016  -2.29586   3.66272
H    -0.89904  -1.33492   4.05758
H     0.27590  -0.12821   2.24454
