46
Generated by autodE on: 2022-06-23. E = -1222.243560 Ha. Imaginary frequency = -280.1 cm-1
C     4.70141   1.12537  -0.37302
N     3.31293   0.87391  -0.02866
C     2.96169  -0.28075   0.58006
O     3.80502  -1.08399   0.98647
C     1.48751  -0.59764   0.73126
C     1.20417  -1.82221   1.55552
N     0.63824   0.47223   0.76113
C    -0.71668   0.41412   0.57667
C    -1.21126   1.70138  -0.00158
O    -0.45533   2.57347  -0.40458
O    -2.53096   1.77746  -0.07033
C    -3.08415   2.91795  -0.74674
C    -1.60919  -0.33610   1.49960
C    -2.82025  -0.90285   1.06474
C    -3.66082  -1.55107   1.96904
C    -3.31323  -1.63824   3.32199
C    -2.12162  -1.05960   3.76631
C    -1.27845  -0.40709   2.86464
C    -0.51640  -1.02040  -1.23916
C    -0.96222  -0.03836  -2.22432
O    -2.15385   0.16071  -2.49210
C     0.09381   0.74770  -2.91544
C     1.38861   0.38556  -2.86180
C     1.81824  -0.81612  -2.10657
O     2.95010  -1.28131  -2.26158
C     0.84541  -1.40812  -1.17257
H     4.79140   2.14955  -0.75524
H     5.34149   1.01718   0.51324
H     5.05461   0.42111  -1.14461
H     2.62370   1.40184  -0.55420
H     1.92080  -2.60694   1.29109
H     1.33329  -1.58633   2.62470
H     0.18788  -2.19830   1.40516
H     0.99920   1.34627   0.36949
H    -2.72459   2.94977  -1.78427
H    -2.80478   3.84383  -0.22496
H    -4.17060   2.77889  -0.72372
H    -3.10073  -0.83580   0.01379
H    -4.59404  -1.99373   1.61333
H    -3.97273  -2.14974   4.02681
H    -1.84617  -1.10935   4.82228
H    -0.35884   0.05962   3.21983
H    -1.27846  -1.70657  -0.87351
H    -0.24673   1.59923  -3.50960
H     2.16715   0.92183  -3.41027
H     1.08697  -2.42582  -0.86538
