51
Generated by autodE on: 2022-05-30. E = -980.488355 Ha
C     4.56739   1.53101   0.09350
N     3.37176   0.75694  -0.16514
C     2.83100  -0.06266   0.74873
O     3.35457  -0.27131   1.85356
C     1.49773  -0.71006   0.38843
N     1.20415  -0.72668  -1.03073
C     2.05768  -1.63645  -1.78153
C    -0.26070  -0.92288  -1.19905
C    -0.63166  -2.42059  -1.12464
C    -0.70021  -0.39030  -2.56533
C    -0.88618  -0.11466   0.02540
C    -2.16087  -0.84712   0.46689
O    -2.20833  -1.69002   1.36943
N    -3.26821  -0.56297  -0.25410
C    -4.52255  -1.24789  -0.01650
C    -1.19666   1.38862  -0.27512
C    -1.85316   2.03131   0.97394
C    -0.65829   2.20810   1.95077
C     0.50498   1.55595   1.17935
C     0.19240   2.03867  -0.24580
C     0.29885   0.00593   1.09331
C     0.12504  -0.60841   2.48337
H     4.38288   2.32919   0.83285
H     5.36967   0.88754   0.48486
H     4.90766   1.99166  -0.84249
H     2.84753   0.89266  -1.02445
H     1.56683  -1.73767   0.79926
H     3.09713  -1.28016  -1.76101
H     2.05740  -2.66962  -1.38100
H     1.74660  -1.67404  -2.83468
H    -0.33853  -2.87277  -0.16738
H    -0.13787  -2.97261  -1.93562
H    -1.71234  -2.56619  -1.25394
H    -0.37513   0.64555  -2.72646
H    -0.27190  -1.00858  -3.36848
H    -1.79393  -0.43622  -2.66934
H    -3.22347   0.13317  -0.98803
H    -4.89034  -1.07019   1.00711
H    -4.41387  -2.33665  -0.14994
H    -5.27043  -0.87725  -0.72868
H    -1.77381   1.54691  -1.19367
H    -2.65785   1.41751   1.40003
H    -2.29806   2.99986   0.70149
H    -0.43207   3.27309   2.11084
H    -0.83639   1.76398   2.93786
H     1.48716   1.82503   1.58892
H     0.86720   1.65300  -1.01418
H     0.14388   3.13646  -0.31759
H     0.08885  -1.70312   2.43642
H    -0.78702  -0.27117   2.98782
H     0.99166  -0.32393   3.10080
