27
Generated by autodE on: 2022-05-30. E = -520.324838 Ha
C     3.40253  -1.39589   0.72526
N     2.05486  -1.16684   0.24839
C     1.53168   0.08089   0.14524
O     2.22466   1.08561   0.39045
C     0.11925   0.14912  -0.27926
C    -0.73281   1.19533  -0.11458
C    -0.53066   2.53948   0.49139
C    -2.11267   0.70414  -0.52202
C    -2.55804  -0.27905   0.61129
C    -1.59834  -1.48871   0.41968
C    -0.71399  -1.03145  -0.78249
C    -1.75457  -0.28969  -1.64294
H     3.69224  -2.43082   0.50261
H     3.49429  -1.23287   1.81339
H     4.10610  -0.71538   0.22486
H     1.44248  -1.96589   0.13193
H     0.48684   2.67868   0.87295
H    -1.25424   2.69165   1.31140
H    -0.74212   3.32786  -0.25259
H    -2.84030   1.49540  -0.74574
H    -2.47601   0.18449   1.60514
H    -3.60865  -0.57067   0.46333
H    -0.98972  -1.70261   1.30998
H    -2.15289  -2.40387   0.16255
H    -0.15562  -1.83980  -1.27240
H    -1.31412   0.19690  -2.52585
H    -2.59982  -0.92539  -1.94965
