24
Generated by autodE on: 2022-05-30. E = -460.099762 Ha
C     3.78454  -0.78083   0.28283
N     2.38336  -1.10021   0.11405
C     1.46575  -0.08595  -0.13372
O     1.90551   1.02702  -0.53488
C     0.11086  -0.46369   0.09400
N    -1.02454   0.29825  -0.16354
C    -0.92032   1.45497  -1.07649
C    -2.22301  -0.00958   0.31159
C    -2.35523  -1.16535   1.24157
C    -3.42971   0.76416  -0.11816
H     4.17377  -0.25912  -0.60321
H     3.98615  -0.13608   1.16036
H     4.35269  -1.71305   0.40687
H     2.04186  -1.89127   0.64989
H    -0.07622  -1.43981   0.52992
H    -1.33644   2.34885  -0.59560
H    -1.49029   1.24517  -1.99154
H     0.13282   1.62146  -1.30645
H    -1.61890  -1.09686   2.06333
H    -2.15460  -2.12688   0.73069
H    -3.36600  -1.21009   1.66519
H    -4.32595   0.35440   0.36353
H    -3.35976   1.83318   0.14751
H    -3.58229   0.72318  -1.21137
