51
Generated by autodE on: 2022-05-30. E = -980.415526 Ha. Imaginary frequency = -260.0 cm-1
C     4.90353  -0.23602   1.52753
N     3.77535  -0.96002   0.98043
C     3.04119  -0.44708  -0.05168
O     3.46502   0.55400  -0.67064
C     1.76146  -1.11324  -0.26286
N     1.03686  -1.07538  -1.44404
C     1.49917  -0.33937  -2.63005
C    -0.21857  -1.58391  -1.45261
C    -0.48462  -2.86496  -0.71221
C    -1.09192  -1.34079  -2.64572
C    -0.88311  -0.03588   0.37003
C    -2.07195  -0.83512   0.68463
O    -2.12381  -1.71383   1.57070
N    -3.19276  -0.55634  -0.04978
C    -4.37262  -1.39013   0.03212
C    -1.04755   1.38924  -0.18288
C    -1.52228   2.24616   1.03178
C    -0.26417   2.24848   1.95286
C     0.78073   1.43764   1.12135
C     0.40514   1.88124  -0.29674
C     0.30927  -0.01791   1.14109
C     0.58173  -0.82704   2.37846
H     4.60550   0.72649   1.98029
H     5.38032  -0.85139   2.30138
H     5.64713  -0.02094   0.74590
H     3.35858  -1.68917   1.54809
H     1.61839  -2.01963   0.31796
H     2.51543   0.01612  -2.45871
H     1.47798  -1.01550  -3.49607
H     0.85895   0.52357  -2.85029
H     0.04491  -3.68167  -1.24043
H    -1.55482  -3.10188  -0.72423
H    -0.15419  -2.87273   0.32985
H    -2.12323  -1.62389  -2.39742
H    -0.78139  -1.95989  -3.50873
H    -1.09131  -0.29204  -2.97149
H    -3.08213   0.01650  -0.87783
H    -4.20429  -2.40365  -0.37570
H    -5.18621  -0.91959  -0.53608
H    -4.69703  -1.50256   1.07698
H    -1.66793   1.49854  -1.08334
H    -2.40935   1.81504   1.51691
H    -1.78208   3.26653   0.70790
H    -0.45256   1.79448   2.93649
H     0.10452   3.27134   2.12569
H     1.82164   1.59176   1.43592
H     0.99731   1.39860  -1.07243
H     0.46579   2.97230  -0.43408
H     0.35522  -1.89157   2.24724
H    -0.03916  -0.47045   3.21954
H     1.63500  -0.72572   2.68168
