47
Generated by autodE on: 2022-06-25. E = -1276.624368 Ha
C    -1.81072   2.48354   1.95153
N    -1.81242   1.51040   0.88204
C    -1.27452   1.70382  -0.32540
O    -0.79403   2.77113  -0.72832
C    -1.23835   0.47046  -1.23556
N    -1.97171  -0.66983  -0.68025
C    -1.12920  -1.84012  -0.50452
C    -1.25688  -2.79686  -1.62852
N    -1.45840  -3.56104  -2.47850
C    -1.50198  -2.73072   0.74129
C    -2.63930  -2.28560   1.60751
O    -0.95820  -3.81185   0.84988
C     0.31232  -1.21548  -0.43495
C     1.44689  -2.21874  -0.67271
C     0.50097  -0.65252   0.98173
O     0.06763  -1.24857   1.95594
C     1.28782   0.58307   1.17704
O     1.50424   0.85003   2.47010
C     1.75666   2.19023   2.91785
C     1.73563   1.31369   0.10783
O     2.63613   2.29471   0.30156
C     2.44229   3.58667  -0.30112
C     1.32561   0.98131  -1.26936
O     1.88834   1.51883  -2.21207
C     0.21893  -0.06038  -1.48876
C     0.32149  -0.52721  -2.94520
H    -2.83725   2.75155   2.24683
H    -1.29311   3.38850   1.61151
H    -1.28934   2.07661   2.83096
H    -2.17427   0.57211   1.04291
H    -1.66173   0.80173  -2.19373
H    -2.84917  -0.86697  -1.15385
H    -2.75122  -2.99178   2.44032
H    -2.49463  -1.26802   1.99027
H    -3.56066  -2.28368   1.00120
H     1.43562  -2.98959   0.10892
H     2.41749  -1.70351  -0.64571
H     1.34020  -2.71174  -1.64746
H     1.49964   2.19428   3.98506
H     1.12155   2.90875   2.38169
H     2.81355   2.45617   2.78892
H     2.85969   4.31726   0.40539
H     2.97550   3.64949  -1.25881
H     1.37355   3.78681  -0.45177
H     1.28104  -1.02154  -3.14559
H     0.25141   0.35205  -3.59763
H    -0.49117  -1.20894  -3.21538
