21
Generated by autodE on: 2022-06-25. E = -587.138706 Ha
C    -4.57073  -0.44336  -0.71172
N    -3.35270  -0.20795   0.03530
C    -2.12482  -0.24170  -0.51246
O    -1.88397  -0.47641  -1.70612
C    -1.01845   0.02698   0.43108
N     0.18041  -0.00067  -0.07260
C     1.42007   0.18877   0.46660
C     1.56100   0.47853   1.83599
N     1.67512   0.71925   2.97400
C     2.52647   0.06685  -0.46655
C     3.91923   0.26288   0.06789
O     2.30153  -0.19061  -1.65649
H    -5.22868   0.43901  -0.67687
H    -4.31256  -0.65296  -1.75593
H    -5.12179  -1.30337  -0.30030
H    -3.42754  -0.00056   1.02741
H    -1.16735   0.23809   1.49148
H     0.22571  -0.20841  -1.08848
H     4.02156   1.26550   0.51331
H     4.13119  -0.46893   0.86394
H     4.64700   0.14455  -0.74479
