26
Generated by autodE on: 2022-06-25. E = -689.460885 Ha
C     2.53171   1.78556  -1.39296
O     1.10414   1.73436  -1.30113
C     0.45838   0.77977  -0.63228
C     0.96255  -0.28097   0.05904
O     2.29866  -0.55239   0.14166
C     2.91140  -0.27416   1.40525
C     0.05352  -1.25163   0.70548
O     0.52561  -2.22739   1.28664
C    -1.42445  -1.04362   0.63839
C    -2.29806  -2.04034   1.33213
C    -1.93791   0.00980  -0.04426
C    -3.41258   0.24867  -0.14864
C    -1.03251   0.97528  -0.71888
O    -1.46598   1.93646  -1.33924
H     2.74910   2.66586  -2.01106
H     2.92837   0.88332  -1.87630
H     2.98702   1.91266  -0.40063
H     3.97310  -0.53535   1.30326
H     2.82076   0.79648   1.65341
H     2.46295  -0.87610   2.20962
H    -1.70110  -2.81466   1.82760
H    -2.93350  -1.54395   2.08412
H    -2.98192  -2.52398   0.61488
H    -3.63024   1.13990  -0.74872
H    -3.91608  -0.61854  -0.60664
H    -3.85769   0.37868   0.85168
