47
Generated by autodE on: 2022-06-25. E = -1276.566602 Ha. Imaginary frequency = -354.2 cm-1
C    -3.37846   2.72245   0.64382
N    -2.97740   1.62527  -0.21617
C    -1.72152   1.56178  -0.70284
O    -0.93743   2.50693  -0.66029
C    -1.44796   0.31699  -1.52780
N    -1.93491  -0.90123  -1.14410
C    -1.52972  -1.60307  -0.03673
C    -1.73620  -3.00774  -0.08899
N    -1.86948  -4.16416  -0.13879
C    -1.19178  -0.99588   1.26025
C    -0.90622  -1.93588   2.40043
O    -1.12765   0.22482   1.39647
C     0.83244  -1.31549  -1.11658
C     0.74729  -2.58793  -1.89509
C     1.48909  -1.38918   0.19295
O     1.83713  -2.45906   0.70125
C     1.75764  -0.11700   0.92357
O     2.08349  -0.31958   2.20673
C     1.88340   0.71904   3.17333
C     1.75397   1.07078   0.25407
O     2.31413   2.17659   0.80932
C     1.54722   3.38240   0.89630
C     1.34802   1.11497  -1.16836
O     1.71173   2.04417  -1.87948
C     0.58991  -0.05975  -1.75642
C     0.60087  -0.04628  -3.27836
H    -4.45724   2.65364   0.83112
H    -3.16234   3.68567   0.16137
H    -2.84530   2.69256   1.60936
H    -3.50752   0.76156  -0.16078
H    -1.69128   0.52336  -2.57397
H    -2.18314  -1.50343  -1.93006
H    -0.09793  -2.63605   2.13987
H    -0.61760  -1.35068   3.28215
H    -1.80113  -2.53567   2.63138
H     1.57619  -2.62982  -2.62495
H     0.82557  -3.46201  -1.23946
H    -0.18119  -2.65015  -2.48258
H     0.92536   1.22840   2.99337
H     2.70412   1.44735   3.15363
H     1.85571   0.21500   4.14829
H     1.31048   3.78158  -0.09829
H     0.61447   3.20955   1.45396
H     2.17526   4.09892   1.44184
H    -0.11044  -0.77128  -3.69285
H     0.34450   0.95154  -3.65481
H     1.60569  -0.30324  -3.65083
