46
Generated by autodE on: 2022-06-02. E = -1349.910585 Ha
C    -4.56799   1.83246  -2.33347
O    -3.49772   1.17065  -1.62749
C    -2.29663   1.28518  -2.14808
O    -1.99636   1.88681  -3.14406
N    -1.36317   0.49482  -1.37286
N    -1.64532  -0.81117  -1.38735
C    -0.71136  -1.36010  -0.62638
C    -0.73722  -2.77933  -0.47145
N    -0.77323  -3.93680  -0.37882
C     0.19882  -0.38937  -0.08454
C    -0.25829   0.83858  -0.59765
C     0.10791   2.32202  -0.44591
C     0.59283   2.90117  -1.79415
C    -1.15670   3.07556   0.03437
C     1.19208   2.61085   0.62206
C     2.65106   2.36536   0.24086
C     2.98867   0.90355  -0.03687
C     2.54594   0.02585   1.13668
C     1.25908  -0.83698   0.92028
C     1.85677  -2.21436   0.49853
C     2.45653  -2.31107  -0.87887
O     1.92568  -3.13088   1.29134
C     0.55477  -0.98333   2.28875
F    -0.41123  -1.91923   2.27435
F     1.40342  -1.29662   3.27712
F    -0.04319   0.17324   2.64529
H    -4.64519   1.43358  -3.35419
H    -4.37846   2.91428  -2.36424
H    -5.47646   1.61451  -1.76229
H    -0.20730   2.94373  -2.53800
H     1.41432   2.30385  -2.21411
H     0.96199   3.92479  -1.62993
H    -1.50871   2.66707   0.99401
H    -1.99198   3.04674  -0.67695
H    -0.90819   4.13659   0.17962
H     0.93537   2.08433   1.55151
H     1.09329   3.68108   0.85780
H     3.27286   2.71006   1.08499
H     2.93387   2.99036  -0.61902
H     4.07451   0.79929  -0.18091
H     2.52485   0.57173  -0.97756
H     2.40075   0.65687   2.02321
H     3.34835  -0.66872   1.42210
H     1.92476  -1.71210  -1.62785
H     2.49207  -3.36656  -1.17782
H     3.49158  -1.93439  -0.82334
