34
Generated by autodE on: 2022-06-02. E = -880.730795 Ha
C    -2.47118  -0.18289  -1.49084
C    -1.03010  -0.26189  -1.88721
O    -0.65693  -0.73390  -2.94031
C     0.03963   0.29740  -0.88611
C     0.38761   1.72094  -1.35210
F     1.26718   2.31204  -0.52839
F    -0.70524   2.50760  -1.39303
F     0.92502   1.72540  -2.58155
C    -0.43869   0.30264   0.49586
C    -0.55689  -0.13773   1.61975
C    -0.37209  -0.95945   2.81941
C     0.53191  -0.22758   3.82863
C    -1.70791  -1.32591   3.48435
C     0.32559  -2.25167   2.28158
C     1.49713  -2.06747   1.29405
C     1.17478  -1.96457  -0.22476
C     1.31663  -0.59328  -0.91626
H    -2.65268  -0.89812  -0.67221
H    -3.10939  -0.43242  -2.34788
H    -2.71112   0.81644  -1.09835
H     0.69382  -0.86573   4.71142
H     1.51121   0.01450   3.38997
H     0.06476   0.71176   4.16173
H    -1.53153  -2.02258   4.31890
H    -2.38740  -1.81102   2.76713
H    -2.20711  -0.42984   3.88418
H     0.68065  -2.80581   3.16660
H    -0.44359  -2.88270   1.80596
H     2.11700  -1.20793   1.59974
H     2.14484  -2.94871   1.42252
H     0.17384  -2.38284  -0.42599
H     1.87667  -2.63064  -0.74954
H     2.13630  -0.02815  -0.44817
H     1.57759  -0.73721  -1.97351
