12
Generated by autodE on: 2022-06-02. E = -469.033889 Ha
C     3.68228   0.08228  -0.15675
O     2.43467   0.48777  -0.73968
C     1.33524   0.07601  -0.11697
O     1.30219  -0.60289   0.88881
N     0.21796   0.55761  -0.81776
N    -0.88612   0.24077  -0.34413
C    -1.96544  -0.01163   0.03335
C    -3.22820  -0.29456   0.45316
N    -4.31255  -0.53771   0.81410
H     3.77313   0.47465   0.86639
H     4.46359   0.50722  -0.79704
H     3.75904  -1.01447  -0.13923
