45
Generated by autodE on: 2022-06-18. E = -864.641731 Ha
C     5.01528  -0.85269  -0.21294
C     3.88803  -0.17166  -0.50207
C     3.92032   1.15714  -1.21021
C     2.58461  -0.71720  -0.10761
C     1.39579  -0.14193  -0.36230
C     0.08904  -0.72810   0.05866
C    -0.83889   0.24673   0.90403
C    -0.74585  -0.13348   2.32733
N    -0.72485  -0.46027   3.44148
C    -0.36541   1.72478   0.82764
O     0.62257   2.08884   1.47212
N    -1.09981   2.49317   0.02231
C    -0.81632   3.88372  -0.25950
N    -2.17209   0.05029   0.35366
C    -2.24288  -1.21782  -0.40579
C    -3.42147  -1.15393  -1.37699
C    -2.45693  -2.41590   0.53714
C    -0.83673  -1.23690  -1.09645
C    -0.39204  -2.63182  -1.54179
C    -0.78626  -0.30884  -2.31987
H     6.00150  -0.46749  -0.48690
H     4.97721  -1.81491   0.30694
H     3.36924   1.11236  -2.16443
H     3.43060   1.93537  -0.60124
H     4.95159   1.47361  -1.42044
H     2.60552  -1.66244   0.44748
H     1.35970   0.79634  -0.91985
H     0.30295  -1.59168   0.70053
H    -1.88668   2.01426  -0.41637
H     0.03745   4.20376   0.35041
H    -0.56766   4.02723  -1.32280
H    -1.68459   4.51543  -0.01741
H    -2.90426   0.12383   1.05839
H    -3.40027  -0.24179  -1.98742
H    -3.41988  -2.02739  -2.04681
H    -4.36992  -1.16427  -0.81652
H    -1.61099  -2.57877   1.22034
H    -2.61995  -3.34525  -0.02756
H    -3.35396  -2.23496   1.15032
H    -1.09037  -3.04389  -2.28724
H     0.60290  -2.57555  -2.01042
H    -0.32438  -3.33864  -0.70336
H    -1.10777   0.71546  -2.09038
H     0.23836  -0.25966  -2.71607
H    -1.42706  -0.69635  -3.12457
