23
Generated by autodE on: 2022-06-18. E = -351.521381 Ha
C     3.53064  -0.36766  -1.30330
C     2.54955  -0.18676  -0.39188
C     2.86419   0.01747   1.06808
C     1.15081  -0.18540  -0.81577
C     0.07835  -0.00936  -0.00358
C    -1.29066  -0.01527  -0.47764
C    -2.41336   0.16091   0.26408
C    -3.77190   0.12673  -0.37707
C    -2.42241   0.39973   1.74733
H     3.29873  -0.51547  -2.36258
H     4.58521  -0.37245  -1.01400
H     2.39184  -0.76171   1.68916
H     2.47445   0.98448   1.42722
H     3.94803  -0.00645   1.24921
H     0.97501  -0.34069  -1.88710
H     0.24599   0.14644   1.06566
H    -1.41743  -0.18081  -1.55444
H    -4.39938  -0.66105   0.07735
H    -3.71658  -0.05429  -1.46052
H    -4.30822   1.07795  -0.20858
H    -2.99979  -0.39118   2.25810
H    -2.93619   1.34970   1.97779
H    -1.42119   0.43558   2.19539
