45
Generated by autodE on: 2022-06-18. E = -864.588536 Ha. Imaginary frequency = -384.8 cm-1
C     4.41436   1.08430   0.89965
C     3.41252   0.94877  -0.00143
C     3.27191   1.90604  -1.15814
C     2.42867  -0.11181   0.14791
C     1.35838  -0.30100  -0.67668
C     0.38197  -1.33297  -0.51608
C    -1.10647   0.26754   0.85682
C    -0.86137  -0.46413   2.03606
N    -0.56636  -1.00431   3.03259
C    -0.48779   1.59517   0.68202
O    -0.79736   2.29734  -0.30113
N     0.42171   1.97108   1.60485
C     1.18907   3.19541   1.53032
N    -2.12727  -0.00465  -0.01802
C    -2.41253  -1.24880  -0.52705
C    -3.48786  -1.21902  -1.58478
C    -2.57260  -2.38133   0.46391
C    -0.60958  -1.68064  -1.47877
C    -0.75486  -3.17115  -1.75160
C    -0.67653  -0.82739  -2.73390
H     5.15402   1.88489   0.81425
H     4.51331   0.39410   1.74316
H     3.33794   1.37560  -2.12255
H     2.28991   2.40562  -1.14000
H     4.05428   2.67753  -1.13365
H     2.56191  -0.78750   1.00061
H     1.22203   0.38607  -1.51364
H     0.56781  -2.05115   0.28924
H     0.66366   1.30909   2.33536
H     1.02231   3.81689   2.42481
H     2.26655   2.97943   1.45530
H     0.87323   3.76216   0.64729
H    -2.22874   0.76943  -0.67901
H    -4.48135  -1.24418  -1.10531
H    -3.41824  -2.10202  -2.23444
H    -3.42870  -0.31411  -2.20555
H    -2.88541  -3.29412  -0.05696
H    -3.36858  -2.11647   1.18047
H    -1.66280  -2.60284   1.03134
H    -1.72469  -3.42078  -2.20783
H     0.02685  -3.48213  -2.46682
H    -0.62585  -3.77526  -0.84311
H     0.25537  -0.92406  -3.31686
H    -1.50046  -1.14385  -3.38782
H    -0.81090   0.23928  -2.50075
