31
Generated by autodE on: 2022-05-28. E = -709.948855 Ha
C    -3.99543   0.67657   1.66018
O    -3.13824   0.55865   0.51400
C    -2.52705  -0.61416   0.33070
O    -2.66822  -1.56427   1.07497
C    -1.62319  -0.61477  -0.91598
C    -2.47608  -0.32056  -2.15724
C    -0.51709   0.39249  -0.68412
C     0.63893  -0.22413  -0.37950
C     1.93259   0.38876  -0.04620
C     3.00625  -0.40984   0.39282
C     4.23808   0.16199   0.72242
C     4.42427   1.54237   0.61653
C     3.36603   2.34896   0.17801
C     2.13663   1.78056  -0.14898
C     0.42249  -1.71966  -0.38986
N    -0.89280  -1.88379  -1.02716
H    -3.42392   0.51174   2.58499
H    -4.81633  -0.05265   1.60216
H    -4.39310   1.69767   1.63704
H    -1.82862  -0.31603  -3.04599
H    -2.97641   0.65474  -2.07441
H    -3.24589  -1.09748  -2.28750
H    -0.69992   1.46598  -0.72281
H     2.87973  -1.49002   0.48409
H     5.05618  -0.47706   1.06336
H     5.38765   1.99000   0.87179
H     3.50297   3.42937   0.08867
H     1.32436   2.42270  -0.49504
H     0.46026  -2.11494   0.64442
H     1.21234  -2.24599  -0.95302
H    -1.42407  -2.61657  -0.56059
