14
Generated by autodE on: 2022-05-28. E = -308.537343 Ha
C     3.21252  -0.07563   0.19805
C     1.99980  -0.04716   0.12301
C     0.57008  -0.01352   0.03495
C    -0.15027  -1.17202  -0.32207
C    -1.54192  -1.13396  -0.40628
C    -2.23261   0.05266  -0.13735
C    -1.52498   1.20630   0.21744
C    -0.13328   1.17860   0.30444
H     4.28709  -0.10103   0.26500
H     0.39111  -2.09655  -0.53149
H    -2.09123  -2.03658  -0.68351
H    -3.32266   0.07843  -0.20439
H    -2.06106   2.13451   0.42813
H     0.42130   2.07732   0.58095
