17
Generated by autodE on: 2022-05-28. E = -401.311968 Ha
C     2.56565  -1.29308   0.16518
N     1.31287  -0.91981   0.04690
C     0.75593   0.31926   0.15303
C     1.63654   1.48071   0.44850
C    -0.65367   0.43993  -0.02609
O    -1.30489   1.48750   0.03892
O    -1.26882  -0.75990  -0.29048
C    -2.68048  -0.72642  -0.48120
H     3.33772  -0.55630   0.38057
H     2.79871  -2.34902   0.04144
H     0.63285  -1.65860  -0.15674
H     1.03805   2.39864   0.50126
H     2.17146   1.35804   1.40989
H     2.41404   1.61644  -0.32776
H    -3.19475  -0.34885   0.41615
H    -2.95146  -0.09229  -1.33954
H    -2.98861  -1.76164  -0.67519
