31
Generated by autodE on: 2022-05-28. E = -709.837628 Ha. Imaginary frequency = -381.2 cm-1
C    -4.85947   0.03168   1.33288
O    -3.86252   0.06110   0.30711
C    -2.83201  -0.79597   0.44290
O    -2.75084  -1.58420   1.38422
C    -1.81382  -0.62667  -0.58347
C    -2.10240   0.05238  -1.89009
C    -0.53375   1.01852   0.29223
C     0.65818   0.71938   0.09101
C     2.09204   0.75768   0.04160
C     2.86303   0.45398   1.18580
C     4.25672   0.48849   1.13195
C     4.91530   0.82620  -0.05586
C     4.16074   1.12993  -1.19514
C     2.76705   1.09402  -1.15330
C     0.39118  -1.42040  -1.01445
N    -0.81558  -1.55626  -0.48539
H    -4.41815   0.26503   2.31324
H    -5.34244  -0.95556   1.38029
H    -5.59670   0.79682   1.06170
H    -1.18131   0.38068  -2.39022
H    -2.64570  -0.61956  -2.57965
H    -2.72355   0.94168  -1.72551
H    -1.33175   1.66840   0.62386
H     2.35496   0.18855   2.11534
H     4.83445   0.25014   2.02869
H     6.00670   0.85193  -0.09374
H     4.66340   1.39635  -2.12844
H     2.18427   1.32643  -2.04727
H     1.16297  -2.12359  -0.70180
H     0.51257  -0.87701  -1.94895
H    -0.88727  -2.12506   0.36238
