15
Generated by autodE on: 2022-06-02. E = -454.229233 Ha
C     2.89814   0.86041   0.93073
C     2.41966  -0.22299   0.01908
O     3.12392  -1.02489  -0.56670
C     0.96973  -0.29782  -0.16110
N    -0.17239  -0.43346  -0.35913
N    -1.39652  -0.61082  -0.59637
C    -2.23917   0.30486   0.05867
C    -3.68887   0.06494  -0.23858
O    -1.82272   1.19396   0.78798
H     2.45020   0.72664   1.92921
H     2.56102   1.83876   0.55055
H     3.99359   0.83089   0.99526
H    -3.96939  -0.95336   0.07391
H    -4.30788   0.80260   0.28618
H    -3.86332   0.12944  -1.32415
