21
Generated by autodE on: 2022-06-02. E = -797.432697 Ha
C     3.03757  -1.31620   0.36292
C     2.07515  -0.18651   0.13567
O     2.38440   0.98867   0.28358
C     0.70615  -0.56465  -0.28346
C    -0.43003   0.15257  -0.23366
C    -0.67683   1.54276   0.25846
F    -0.16666   2.47477  -0.56485
F    -2.00034   1.78184   0.35111
F    -0.15728   1.75877   1.47930
C    -1.54917  -0.82358  -0.66995
C    -1.69693  -1.86039   0.46837
C    -0.57534  -2.58302   0.41732
C     0.23742  -1.97301  -0.74707
O    -0.82203  -1.59134  -1.63899
H     3.24357  -1.81994  -0.59661
H     2.58961  -2.07237   1.02848
H     3.97477  -0.93732   0.78977
H    -2.46058  -0.37787  -1.07929
H    -2.53308  -1.90429   1.16473
H    -0.23191  -3.39292   1.05938
H     0.98582  -2.60552  -1.23336
