36
Generated by autodE on: 2022-06-02. E = -1251.659639 Ha. Imaginary frequency = -253.6 cm-1
C    -2.22885   3.72439   0.73047
C    -2.12222   2.25904   1.03391
O    -2.98299   1.59530   1.57717
C    -0.85956   1.64149   0.58886
N     0.31533   1.80668   0.43558
N     1.44153   1.26338   0.29460
C     2.42009   1.96156  -0.43655
C     3.68106   1.17755  -0.64542
O     2.24645   3.09589  -0.85222
C     0.42428  -0.96554   0.01347
C     1.09072  -1.26518  -1.29447
F     2.36832  -1.65091  -1.09875
F     0.47526  -2.28860  -1.92575
F     1.11581  -0.23557  -2.15485
C     0.94696  -1.54139   1.34858
C     0.29171  -2.92990   1.50935
C    -0.99742  -2.67384   1.75032
C    -1.10984  -1.13530   1.72392
O     0.16596  -0.76208   2.26226
C    -0.90429  -0.68495   0.24165
C    -1.97289  -0.60937  -0.78921
C    -3.32198  -1.13144  -0.38271
O    -1.74989  -0.15720  -1.90412
H    -2.17969   3.87273  -0.36065
H    -3.17861   4.10716   1.12551
H    -1.37617   4.26232   1.17397
H     3.63380   0.69222  -1.63355
H     4.53619   1.86707  -0.64952
H     3.81206   0.39918   0.11620
H     2.02135  -1.45553   1.53160
H     0.80761  -3.88072   1.38333
H    -1.83177  -3.36025   1.88752
H    -1.93892  -0.66850   2.26086
H    -3.71123  -0.52838   0.45209
H    -4.01287  -1.08600  -1.23413
H    -3.23579  -2.16951  -0.02190
