49
Generated by autodE on: 2022-06-01. E = -1133.870831 Ha
C     1.26796  -0.36693  -3.66244
C    -0.04283  -0.11997  -3.78022
C    -0.43700   0.59764  -2.49564
O     0.76666   1.32060  -2.18009
C     1.65837   0.20347  -2.30789
C     1.06333  -0.76604  -1.22212
C     1.34043  -0.27169   0.17881
C     2.69930  -0.27537   0.76147
C     3.76370  -0.91980   0.10595
C     5.04317  -0.92843   0.66749
C     5.27862  -0.29130   1.88846
C     4.22521   0.35239   2.55051
C     2.94806   0.35814   1.99410
N     0.32524   0.17877   0.82088
C    -0.91698  -0.04664   0.04988
C    -1.76602   1.21630  -0.01951
C    -3.09466   1.13747  -0.46684
C    -3.86616   2.29019  -0.61897
C    -3.32053   3.54541  -0.32348
C    -1.99923   3.63216   0.12022
C    -1.22658   2.47423   0.26789
C    -1.64386  -1.16407   0.82268
C    -1.47172  -2.52040   0.51059
C    -2.07316  -3.51755   1.28583
C    -2.84908  -3.17717   2.39626
C    -3.01095  -1.82869   2.72997
C    -2.41177  -0.83586   1.95226
C    -0.46002  -0.49916  -1.38160
H     1.92362  -0.93973  -4.31860
H    -0.73529  -0.44190  -4.55849
H    -1.30159   1.26530  -2.53580
H     2.69951   0.50652  -2.15559
H     1.38181  -1.80493  -1.37754
H     3.59642  -1.42716  -0.84510
H     5.85871  -1.43601   0.14739
H     6.27996  -0.29561   2.32548
H     4.40357   0.85165   3.50585
H     2.12367   0.85452   2.50702
H    -3.52695   0.16224  -0.70171
H    -4.89818   2.20987  -0.96920
H    -3.92392   4.44890  -0.43954
H    -1.56204   4.60643   0.35264
H    -0.19327   2.54869   0.60641
H    -0.85832  -2.82051  -0.33933
H    -1.92992  -4.56703   1.01720
H    -3.32089  -3.95606   2.99998
H    -3.60743  -1.54665   3.60113
H    -2.54294   0.21173   2.22771
H    -1.03618  -1.36124  -1.72759
