34
Generated by autodE on: 2022-07-02. E = -1476.446133 Ha
C    -2.46663   0.09416  -2.24795
C    -1.15506  -0.21813  -2.89311
O    -1.04823  -0.77304  -3.96474
C     0.15816   0.20153  -2.13793
C     0.72312   1.44052  -2.85261
F     1.79269   1.93341  -2.20951
F     1.10001   1.16206  -4.10663
F    -0.19208   2.42619  -2.91611
C    -0.08578   0.47511  -0.72648
C    -0.17517   0.24787   0.45685
C    -0.07707  -0.48091   1.71616
C     0.92153   0.23189   2.66073
F     2.14482   0.26566   2.11458
F     0.55978   1.49850   2.90525
F     1.02429  -0.39586   3.83967
C    -1.47540  -0.56664   2.37584
F    -1.93886   0.63688   2.73738
F    -1.46351  -1.34501   3.46428
F    -2.36092  -1.09051   1.51358
C     0.41883  -1.93088   1.37200
C     1.43018  -2.06954   0.21665
C     0.87821  -2.14438  -1.23569
C     1.18980  -0.96839  -2.18270
H    -3.28893  -0.15439  -2.93021
H    -2.50338   1.15722  -1.96311
H    -2.56018  -0.48515  -1.31524
H    -0.47238  -2.52673   1.13075
H     0.84246  -2.35725   2.29251
H     2.19967  -1.28750   0.28755
H     1.95613  -3.01534   0.41557
H    -0.20748  -2.33864  -1.22249
H     1.32501  -3.03151  -1.70853
H     1.21449  -1.32058  -3.22258
H     2.18304  -0.55777  -1.94783
