24
Generated by autodE on: 2022-07-27. E = -667.423229 Ha
C     0.32114   3.79889  -1.25779
O     0.53158   2.44149  -0.85981
C    -0.57801   1.68170  -0.66224
O    -1.70327   2.14729  -0.78234
C    -0.23710   0.31796  -0.29963
N     1.12315   0.02667  -0.29124
C     1.76999  -0.97815   0.21987
C     1.22899  -1.88593   1.27866
C     1.57800  -3.33658   1.15542
O     0.69964  -1.39229   2.26294
C    -1.17638  -0.76862  -0.22123
C    -2.65130  -0.50715  -0.40673
O    -0.78884  -1.94033  -0.03820
H    -0.21769   3.84719  -2.21569
H    -0.25151   4.34327  -0.49260
H     1.31868   4.24125  -1.36534
H     1.68783   0.70575  -0.81342
H     2.82757  -1.06230  -0.04660
H     1.38334  -3.70217   0.13730
H     2.65947  -3.44812   1.34855
H     1.01818  -3.92260   1.89607
H    -3.02317   0.17032   0.37650
H    -3.17966  -1.46782  -0.34712
H    -2.85865  -0.02107  -1.37061
