24
Generated by autodE on: 2022-07-02. E = -667.436492 Ha
C    -3.99770  -0.53796  -0.18466
O    -2.79124   0.22325  -0.33164
C    -1.65062  -0.39439  -0.02379
O    -1.61124  -1.55774   0.36724
C    -0.43910   0.41916  -0.18273
N     0.66738  -0.29217   0.16585
C     1.95492  -0.05114   0.21081
C     2.79917  -1.16953   0.66432
C     4.27391  -0.91134   0.72513
O     2.28786  -2.24681   0.96912
C    -0.31065   1.79397  -0.64263
C    -1.52676   2.58817  -1.04856
O     0.81042   2.31950  -0.70535
H    -4.12791  -0.85652   0.85955
H    -3.97777  -1.42282  -0.83696
H    -4.81224   0.13295  -0.48083
H     0.42689  -1.25669   0.46562
H     2.34368   0.92028  -0.07486
H     4.64023  -0.61430  -0.27166
H     4.80628  -1.80612   1.07150
H     4.47507  -0.06467   1.40243
H    -2.07015   2.09063  -1.86470
H    -2.23034   2.68703  -0.20915
H    -1.19139   3.58191  -1.37292
