58
Generated by autodE on: 2022-07-02. E = -2143.835744 Ha. Imaginary frequency = -258.1 cm-1
C     8.07988   3.95652   9.26145
O     8.34380   2.57641   9.55451
C     7.29904   1.74198   9.55024
O     6.15562   2.09028   9.32784
C     7.69606   0.33810   9.84312
C     6.50295  -0.62439   9.96199
C     5.60585  -0.37206  11.14730
O     6.20773  -1.40411   9.08096
N     8.86264   0.22298  10.49090
C     9.57079  -0.87254  10.82844
C     8.92327  -2.03296  11.45010
C     9.74813  -2.88908  12.37654
O     7.71866  -2.24923  11.32339
C     9.68675  -1.42222   8.44631
C     8.81387  -0.72677   7.88476
C     8.24473  -0.51812   6.51713
C     9.42731  -0.02256   5.58648
C     9.46842  -0.46434   4.15099
O    10.23778   0.75389   6.04321
C     7.23071   0.64388   6.39906
F     7.74930   1.80611   6.83773
F     6.88777   0.83846   5.10746
F     6.09260   0.43800   7.06470
C     7.53433  -1.82225   6.03042
C     8.05615  -3.15667   6.57277
C     9.47374  -3.62284   6.21233
C    10.69714  -2.79754   6.63781
C    10.80573  -2.36102   8.13123
C    10.81278  -3.62781   9.02631
F    11.44001  -4.65442   8.43396
F     9.56337  -4.03302   9.30280
F    11.43795  -3.42625  10.19714
C    12.16823  -1.63212   8.29893
F    13.19415  -2.48963   8.14787
F    12.31193  -1.05028   9.49759
F    12.31364  -0.66986   7.38069
H     7.38941   4.37985  10.00470
H     9.04965   4.46417   9.30820
H     7.64585   4.05255   8.25649
H     6.16730  -0.02477  12.02425
H     5.05263  -1.29133  11.38185
H     4.88614   0.41348  10.86604
H     9.42659   1.07458  10.41929
H    10.59413  -0.65439  11.12649
H    10.81506  -2.64379  12.36731
H     9.60007  -3.95144  12.13467
H     9.35259  -2.72590  13.39317
H    10.29812   0.04974   3.64979
H     8.51937  -0.22890   3.64819
H     9.60924  -1.55294   4.07817
H     7.52897  -1.83041   4.93294
H     6.48410  -1.75287   6.34206
H     7.37150  -3.92411   6.17563
H     7.91568  -3.17794   7.66120
H     9.58539  -4.64605   6.60361
H     9.54846  -3.71785   5.11604
H    11.59815  -3.37587   6.38888
H    10.76882  -1.87989   6.04933
