33
Generated by autodE on: 2022-06-17. E = -707.296618 Ha
C    -2.40143   2.49892  -0.08407
C    -2.53579   1.00673  -0.26586
O    -3.45868   0.49546  -0.91502
N    -1.60504   0.23988   0.34500
N    -0.56009   0.80533   1.14210
N     0.45423  -0.16747   1.14405
C     1.47695   0.04126   0.18509
C     2.48361  -0.93005   0.02495
C     3.51622  -0.73333  -0.89232
C     3.57906   0.43518  -1.65943
C     2.59093   1.40854  -1.48735
C     1.54851   1.22046  -0.57638
C    -0.24632  -1.47939   1.15285
C    -0.63172  -1.89667   2.56408
C    -1.46299  -1.22229   0.22554
C    -1.22150  -1.67096  -1.21312
H    -2.50101   2.77715   0.97635
H    -3.18972   2.99312  -0.66545
H    -1.41281   2.84300  -0.42267
H    -0.91349   0.86398   2.10053
H     2.46579  -1.83860   0.62871
H     4.28475  -1.50277  -1.00100
H     4.38940   0.58584  -2.37593
H     2.62288   2.33049  -2.07372
H     0.78199   1.98326  -0.45007
H     0.40573  -2.23999   0.71151
H    -1.28779  -1.15305   3.04401
H    -1.17446  -2.85367   2.53735
H     0.26629  -2.02158   3.18718
H    -2.36596  -1.71026   0.62398
H    -2.07080  -1.39996  -1.85387
H    -1.09827  -2.76417  -1.24269
H    -0.31077  -1.20684  -1.62091
