33
Generated by autodE on: 2022-06-17. E = -707.216858 Ha. Imaginary frequency = -395.8 cm-1
C    -2.68750   2.56094   0.56740
C    -2.49386   1.22425  -0.10862
O    -3.35692   0.72246  -0.83362
N    -1.29451   0.57836   0.06046
N    -0.54399   0.86622   1.12203
N     0.58130   0.22037   1.27960
C     1.47818   0.18427   0.19673
C     2.57608  -0.69197   0.31339
C     3.54379  -0.75691  -0.68549
C     3.45512   0.07088  -1.81227
C     2.38913   0.96906  -1.91600
C     1.40331   1.02877  -0.92855
C    -0.41250  -1.80778   1.12187
C    -0.91377  -1.89046   2.53164
C    -1.27815  -1.54610   0.06036
C    -0.90990  -1.83143  -1.36554
H    -2.71680   2.43152   1.66268
H    -3.63623   3.00044   0.23512
H    -1.85314   3.24094   0.33941
H    -1.03275   1.00643   2.01539
H     2.65217  -1.32419   1.19999
H     4.37990  -1.45249  -0.58037
H     4.21506   0.02188  -2.59524
H     2.31696   1.63429  -2.78011
H     0.58181   1.73517  -1.02992
H     0.55240  -2.26415   0.89631
H    -1.62317  -1.07271   2.74907
H    -1.46111  -2.83446   2.70640
H    -0.09341  -1.83829   3.26186
H    -2.34923  -1.51092   0.28188
H    -1.49919  -1.21036  -2.05515
H    -1.11925  -2.88866  -1.60701
H     0.15896  -1.64988  -1.55097
