50
Generated by autodE on: 2022-06-22. E = -1042.040370 Ha
C    -1.99502   4.79905  -0.01639
C    -2.42846   3.38286   0.24267
O    -3.36832   3.10451   0.96695
C    -1.61367   2.31399  -0.46451
C    -0.12654   2.31855  -0.10521
C     0.29287   0.85841  -0.37480
C     0.40551   0.61929  -1.88694
C     1.56735   0.52796   0.35165
C     2.60356  -0.18516  -0.13341
C     3.80537  -0.46035   0.63649
C     4.87641  -1.19146   0.24343
C     5.00531  -1.85596  -1.09863
C     6.04866  -1.39556   1.16221
C    -1.01266   0.12016   0.17842
C    -1.00143  -0.09192   1.71420
C    -2.16198   0.44569   2.49741
O    -0.09859  -0.71033   2.25014
C    -1.25249  -1.24023  -0.46628
C    -2.36142  -1.44838  -1.29707
C    -2.55742  -2.68330  -1.92329
C    -1.64737  -3.72533  -1.72899
C    -0.54030  -3.52444  -0.89770
C    -0.34466  -2.29420  -0.26708
O    -2.08093   1.00493  -0.16319
H    -1.73781   4.95106  -1.07545
H    -2.78204   5.49817   0.29572
H    -1.08376   5.00097   0.57234
H    -1.74331   2.50386  -1.54652
H     0.00901   2.55728   0.96127
H     0.45016   3.03774  -0.70080
H     0.67031  -0.41958  -2.11896
H    -0.54101   0.83504  -2.40099
H     1.18354   1.27466  -2.30518
H     1.64614   0.92698   1.36744
H     2.54641  -0.59518  -1.14405
H     3.82905  -0.02940   1.64474
H     5.14255  -2.94472  -0.97421
H     5.90790  -1.49210  -1.62069
H     4.14169  -1.69428  -1.75648
H     5.91035  -0.89265   2.13070
H     6.97847  -1.01605   0.70153
H     6.21795  -2.47133   1.34885
H    -3.11387   0.15283   2.03116
H    -2.14011   1.54569   2.48842
H    -2.10319   0.07786   3.52992
H    -3.06834  -0.63558  -1.45774
H    -3.42783  -2.82807  -2.56797
H    -1.79969  -4.68934  -2.22018
H     0.17915  -4.33124  -0.73807
H     0.51849  -2.14943   0.38048
