23
Generated by autodE on: 2022-06-22. E = -351.521383 Ha
C     3.35373  -1.25067  -1.21986
C     2.48372  -0.56897  -0.44257
C     2.96021   0.27781   0.70987
C     1.04931  -0.64516  -0.71239
C     0.07741  -0.01114  -0.00933
C    -1.33332  -0.12149  -0.31986
C    -2.36307   0.47386   0.33351
C    -2.20566   1.37293   1.52693
C    -3.78198   0.26144  -0.11295
H     4.43175  -1.21188  -1.04023
H     3.00457  -1.86477  -2.05573
H     2.52460  -0.06634   1.66267
H     2.65154   1.32903   0.58488
H     4.05523   0.24785   0.80003
H     0.75446  -1.27445  -1.56084
H     0.36381   0.61845   0.83737
H    -1.58037  -0.75790  -1.17826
H    -2.77343   0.97098   2.38467
H    -2.63628   2.36765   1.31520
H    -1.16359   1.51173   1.84229
H    -3.84767  -0.40039  -0.98900
H    -4.38737  -0.17561   0.70152
H    -4.26138   1.22436  -0.36550
