27
Generated by autodE on: 2022-06-22. E = -690.436503 Ha
C     3.84509  -0.73413  -0.06775
C     3.18167   0.53908   0.40086
O     3.83272   1.50734   0.81857
C     1.74411   0.62007   0.36400
O     1.09522  -0.40792  -0.12189
C    -0.17837  -0.64670  -0.33384
C    -0.41470  -1.92901  -1.00477
C     0.78798  -2.75858  -1.38374
O    -1.56295  -2.30389  -1.24863
C    -1.23787   0.27423   0.07828
C    -1.21774   0.89200   1.34684
C    -2.25595   1.73637   1.73758
C    -3.32469   1.98746   0.87042
C    -3.35470   1.38017  -0.38931
C    -2.32538   0.52668  -0.78384
H     3.56684  -0.96063  -1.10881
H     3.52236  -1.58875   0.54782
H     4.93402  -0.61840   0.00717
H     1.20437   1.50503   0.70209
H     1.41416  -2.97398  -0.50479
H     0.43980  -3.69769  -1.83182
H     1.41820  -2.21610  -2.10594
H    -0.40295   0.68945   2.04386
H    -2.23170   2.19863   2.72687
H    -4.13324   2.65510   1.17670
H    -4.18514   1.57497  -1.07164
H    -2.35235   0.05801  -1.76696
