27
Generated by autodE on: 2022-07-27. E = -690.430215 Ha
C     0.28459   4.33345  -0.90666
C     0.25963   2.90978  -0.40785
O     1.32287   2.35205  -0.03101
C    -0.96732   2.22329  -0.45952
O    -1.00673   0.87345  -0.35104
C    -0.17440   0.05205   0.21956
C     0.74089   0.47844   1.33589
C     0.17202   1.41149   2.37208
O     1.80250  -0.10310   1.50818
C    -0.31092  -1.33562  -0.19037
C    -1.02848  -1.64077  -1.37215
C    -1.18889  -2.96002  -1.78097
C    -0.63661  -4.00343  -1.02706
C     0.07527  -3.71576   0.14251
C     0.24059  -2.39850   0.56303
H    -0.71191   4.70092  -1.18700
H     0.70510   4.98194  -0.12140
H     0.95473   4.39998  -1.77938
H    -1.86496   2.60783  -0.93835
H     0.95277   2.11563   2.69154
H    -0.71286   1.96756   2.03719
H    -0.10736   0.78707   3.23732
H    -1.44426  -0.82976  -1.97064
H    -1.73983  -3.17911  -2.69819
H    -0.75977  -5.03879  -1.35265
H     0.50176  -4.52676   0.73663
H     0.78745  -2.19208   1.48081
