50
Generated by autodE on: 2022-06-22. E = -1041.950186 Ha. Imaginary frequency = -332.0 cm-1
C    -0.77209   4.93888  -0.47266
C    -0.75353   3.54110   0.09644
O     0.07711   3.21387   0.95400
C    -1.72540   2.63181  -0.47556
C    -0.10250   2.15462  -2.03686
C     0.26192   0.82503  -1.82555
C    -0.46817  -0.24409  -2.59101
C     1.45943   0.49638  -1.08736
C     1.96769  -0.75821  -0.93744
C     3.10220  -1.05886  -0.09561
C     3.56309  -2.29339   0.23420
C     2.95378  -3.57823  -0.25162
C     4.73684  -2.45784   1.15729
C    -1.16345   0.51210   0.50877
C    -0.39803   0.87909   1.74165
C    -1.18353   1.62949   2.79302
O     0.69486   0.38957   2.00239
C    -1.49268  -0.87955   0.27464
C    -2.67390  -1.23821  -0.42196
C    -2.95549  -2.57013  -0.70156
C    -2.06526  -3.58351  -0.31593
C    -0.89413  -3.24376   0.36612
C    -0.60740  -1.91197   0.67025
O    -1.99636   1.39576  -0.05542
H    -1.20561   4.98281  -1.48122
H    -1.38628   5.57145   0.19102
H     0.24935   5.34440  -0.47919
H    -2.52930   3.02147  -1.09938
H     0.60745   2.94176  -1.77908
H    -0.81451   2.39099  -2.82936
H    -0.49337  -1.20837  -2.06971
H     0.03914  -0.41305  -3.55769
H    -1.50171   0.06064  -2.80810
H     1.95577   1.32994  -0.57878
H     1.47031  -1.58956  -1.43970
H     3.60885  -0.19406   0.34934
H     3.71662  -4.20258  -0.74951
H     2.58496  -4.17177   0.60411
H     2.11887  -3.43539  -0.94908
H     4.45783  -3.05321   2.04549
H     5.13511  -1.49101   1.49883
H     5.55212  -3.01542   0.66147
H    -1.60817   0.86673   3.46951
H    -2.01046   2.22436   2.38764
H    -0.50575   2.27025   3.37324
H    -3.36479  -0.45679  -0.73894
H    -3.87620  -2.82518  -1.23195
H    -2.28721  -4.62797  -0.54597
H    -0.18982  -4.02213   0.66891
H     0.30531  -1.66242   1.20552
