40
Generated by autodE on: 2022-05-29. E = -1159.801916 Ha
C    -1.18040  -2.27126  -1.50400
N    -0.49321  -1.43712  -0.54533
N     0.72064  -1.95658   0.00365
C     0.53646  -3.11408   0.89627
C     1.27070  -0.74864   0.64009
C     2.22195  -1.07990   1.70900
N     2.99777  -1.30152   2.54074
C     1.97289   0.17367  -0.36788
C     1.97749  -0.12206  -1.73476
C     2.61513   0.73781  -2.63329
C     3.25698   1.89098  -2.17337
C     3.26515   2.17960  -0.80532
C     2.62677   1.32399   0.09439
C    -0.02075  -0.06558   1.25753
F    -0.16733  -0.40041   2.56078
F     0.01989   1.28075   1.20884
C    -1.19518  -0.65362   0.39123
F    -1.98098  -1.44203   1.27379
C    -2.09281   0.39138  -0.23365
C    -1.63735   1.11458  -1.34510
C    -2.44368   2.10083  -1.91503
C    -3.70537   2.37542  -1.37602
C    -4.15566   1.66015  -0.26319
C    -3.35145   0.67064   0.31015
H    -1.97792  -1.68202  -1.97653
H    -0.46921  -2.58539  -2.28116
H    -1.63624  -3.16966  -1.05149
H     1.52424  -3.50881   1.16783
H     0.01289  -3.89774   0.33389
H    -0.03379  -2.89527   1.81397
H     1.48476  -1.02290  -2.09511
H     2.61039   0.50065  -3.69960
H     3.75467   2.56069  -2.87852
H     3.77148   3.07339  -0.43414
H     2.63853   1.55556   1.16125
H    -0.65103   0.90167  -1.76000
H    -2.08471   2.65773  -2.78352
H    -4.33593   3.14744  -1.82327
H    -5.13927   1.87056   0.16303
H    -3.70276   0.11189   1.17737
