24
Generated by autodE on: 2022-05-29. E = -552.115685 Ha
C    -3.22270  -0.22041  -1.23351
N    -2.68782  -1.14758  -0.27668
N    -1.49257  -0.93528   0.15007
C    -0.95429  -2.07561   0.93052
C    -0.70955   0.18360  -0.01301
C    -1.31776   1.45339  -0.09416
N    -1.75893   2.53727  -0.09953
C     0.76214   0.13031   0.06627
C     1.47605   1.17168   0.69348
C     2.86955   1.14997   0.74773
C     3.58222   0.08695   0.18252
C     2.88606  -0.94690  -0.45227
C     1.49281  -0.92191  -0.52263
H    -4.05155  -0.72203  -1.75137
H    -3.62783   0.70084  -0.77962
H    -2.45801   0.09416  -1.97020
H    -0.61097  -2.86211   0.24799
H    -0.13597  -1.74236   1.57432
H    -1.78454  -2.45784   1.53380
H     0.92898   1.99989   1.14897
H     3.40210   1.96528   1.24309
H     4.67341   0.06846   0.22955
H     3.43244  -1.77340  -0.91286
H     0.96876  -1.71738  -1.05465
