24
Generated by autodE on: 2022-07-27. E = -552.115824 Ha
C    -2.89300  -2.06265  -0.91061
N    -1.77088  -1.17967  -0.70234
N    -1.15438  -1.25156   0.42245
C    -1.60067  -2.22163   1.45393
C    -0.07658  -0.44501   0.70145
C     0.52091  -0.59889   1.97487
N     1.06343  -0.67337   3.00833
C     0.50951   0.56073  -0.19737
C     0.08775   0.80948  -1.52506
C     0.71651   1.78243  -2.30790
C     1.77495   2.54023  -1.80676
C     2.20551   2.30940  -0.49424
C     1.58913   1.34260   0.29264
H    -3.71402  -1.89930  -0.18929
H    -3.28354  -1.85998  -1.91609
H    -2.61961  -3.13215  -0.86300
H    -0.97811  -2.15047   2.34601
H    -1.53084  -3.23342   1.03721
H    -2.64277  -2.00344   1.71512
H    -0.73458   0.23372  -1.93276
H     0.36371   1.94467  -3.32967
H     2.25912   3.29990  -2.42459
H     3.03189   2.88956  -0.07639
H     1.95118   1.19022   1.31002
