16
Generated by autodE on: 2022-05-29. E = -607.623912 Ha
F     1.86209  -1.65831   0.03116
C     1.93414  -0.34329   0.05203
F     3.18195   0.07507   0.09313
C     0.87883   0.48516   0.03415
F     1.19015   1.80116   0.05670
C    -0.55081   0.17175  -0.01159
C    -1.46463   1.24245  -0.06301
C    -2.83813   1.00018  -0.10842
C    -3.32519  -0.30949  -0.10300
C    -2.42350  -1.37804  -0.05088
C    -1.04918  -1.14723  -0.00516
H    -1.09441   2.26768  -0.06762
H    -3.53110   1.84381  -0.14836
H    -4.40047  -0.49822  -0.13848
H    -2.79258  -2.40619  -0.04481
H    -0.36829  -1.99583   0.03682
