43
Generated by autodE on: 2022-10-21. E = -979.386240 Ha
C    -3.50661  -0.23960  -1.91621
O    -2.12801   0.09906  -1.92863
C    -1.45815   0.07159  -0.69031
C    -2.05709   1.03206   0.40490
C    -2.18014   2.41534  -0.21194
C    -0.92540   2.87632  -0.29320
C    -0.04575   1.76123   0.25214
O    -0.90646   1.17261   1.25158
C    -0.02239   0.65574  -0.84805
C     0.94013  -0.54832  -0.63038
C     1.16879  -1.24329  -1.98508
C     2.28683  -0.15030  -0.04662
C     3.01788   0.88989  -0.64691
C     4.26358   1.27296  -0.14848
C     4.80894   0.61802   0.96216
C     4.09515  -0.42054   1.56268
C     2.84474  -0.80236   1.06133
N     0.20572  -1.46106   0.26848
C    -1.19572  -1.38997  -0.14222
C    -2.16970  -1.85529   0.93612
C    -1.71123  -1.89621   2.36565
O    -3.30862  -2.17091   0.62625
H    -3.67479  -1.27060  -1.56931
H    -4.09167   0.44323  -1.27505
H    -3.86581  -0.14032  -2.95015
H    -2.91745   0.64933   0.96361
H    -3.10294   2.86600  -0.57629
H    -0.56107   3.79691  -0.74988
H     0.92116   2.03768   0.68254
H     0.11092   1.09787  -1.84143
H     0.21451  -1.48446  -2.47636
H     1.73726  -2.17378  -1.84004
H     1.73421  -0.58741  -2.66188
H     2.60219   1.41237  -1.51159
H     4.81110   2.08826  -0.62770
H     5.78374   0.91742   1.35447
H     4.51033  -0.94270   2.42828
H     2.30584  -1.62081   1.53904
H     0.27028  -1.05748   1.20324
H    -1.36680  -2.05733  -0.99994
H    -2.54295  -2.20177   3.01276
H    -0.87274  -2.60237   2.47433
H    -1.33998  -0.90419   2.66856
