26
Generated by autodE on: 2022-10-26. E = -557.226522 Ha
C    -2.74603  -1.03083   2.02163
C    -3.07647  -1.35968   0.57115
O    -4.17278  -1.90387   0.29380
C    -2.13226  -1.04352  -0.43687
N    -0.93481  -0.45036  -0.14300
C     0.04494  -0.07881  -0.95288
C    -0.14992  -0.30777  -2.41250
C     1.25019   0.52365  -0.38081
C     2.11436   1.29854  -1.18594
C     3.25452   1.89577  -0.64857
C     3.56943   1.73580   0.70408
C     2.72842   0.96491   1.51534
C     1.59023   0.36341   0.98368
H    -3.56546  -1.38877   2.65869
H    -1.80922  -1.51276   2.34832
H    -2.63103   0.05542   2.17435
H    -2.35206  -1.27302  -1.47682
H    -0.78659  -0.25548   0.84883
H    -1.00979   0.27270  -2.79256
H    -0.38186  -1.37112  -2.60004
H     0.73791  -0.04546  -2.99606
H     1.88243   1.45454  -2.23990
H     3.90002   2.49577  -1.29433
H     4.46449   2.20135   1.12248
H     2.96885   0.81792   2.57086
H     0.98075  -0.26096   1.64141
