17
Generated by autodE on: 2022-10-21. E = -422.092816 Ha
C    -2.92969   0.33039  -0.51095
O    -1.82743   0.77663   0.27597
C    -0.69705   0.07143   0.14035
C    -0.34720  -0.99614  -0.59798
C     1.16012  -1.14870  -0.29300
C     1.90323   0.05787  -0.91816
C     1.53368   1.11238  -0.18486
C     0.57947   0.52593   0.88149
O     1.19181  -0.75663   1.10266
H    -3.77310   0.99567  -0.28752
H    -2.68565   0.38321  -1.58495
H    -3.19544  -0.70799  -0.25192
H    -0.91223  -1.56976  -1.32808
H     1.60061  -2.14018  -0.44776
H     2.52919   0.01679  -1.80954
H     1.76813   2.16922  -0.30734
H     0.42816   1.09364   1.80645
