43
Generated by autodE on: 2022-10-21. E = -979.310012 Ha. Imaginary frequency = -325.6 cm-1
C    -3.51691  -0.19662  -1.93054
O    -2.18633   0.29234  -2.09511
C    -1.47588   0.54421  -0.96862
C    -2.07868   1.11989   0.33674
C    -2.18682   2.64628   0.12329
C    -0.91985   3.07851   0.10271
C    -0.05424   1.81416   0.29941
O    -0.91647   1.05190   1.17652
C    -0.15554   0.97236  -0.98327
C     1.08176  -0.88744  -0.63767
C     1.05260  -1.34211  -2.07262
C     2.33754  -0.35045  -0.06500
C     3.16108   0.49202  -0.83958
C     4.31185   1.06792  -0.30184
C     4.67769   0.81518   1.02429
C     3.87672  -0.02443   1.80375
C     2.72393  -0.60117   1.26814
N     0.22400  -1.48445   0.21784
C    -1.06853  -1.80749  -0.11306
C    -2.03150  -2.10229   0.90193
C    -1.63596  -1.94183   2.35831
O    -3.20106  -2.44786   0.61918
H    -3.52705  -1.11887  -1.33197
H    -4.16107   0.55891  -1.45055
H    -3.90098  -0.40206  -2.93833
H    -2.93755   0.60251   0.77575
H    -3.11354   3.19738  -0.03451
H    -0.53466   4.08199  -0.07887
H     0.94171   1.94922   0.73595
H     0.37221   1.24330  -1.89666
H     0.04635  -1.28663  -2.50686
H     1.39148  -2.39215  -2.13043
H     1.71982  -0.73790  -2.69656
H     2.88712   0.72074  -1.87007
H     4.92588   1.72296  -0.92452
H     5.57991   1.26506   1.44472
H     4.15385  -0.24265   2.83782
H     2.14085  -1.27188   1.90255
H     0.34159  -1.20982   1.18963
H    -1.26954  -2.12905  -1.13137
H    -2.47147  -2.26479   2.99274
H    -0.74181  -2.53599   2.60768
H    -1.40416  -0.88742   2.57847
