46
Generated by autodE on: 2022-06-05. E = -1375.631029 Ha
C     2.51848   2.95027  -1.64433
O     1.53554   2.03737  -1.12609
C     0.27124   2.43533  -1.14338
O    -0.11812   3.49551  -1.57041
C    -0.62198   1.38952  -0.43315
C    -2.12376   1.63093  -0.73787
C    -3.06954   1.53590   0.41396
O    -2.46039   1.84242  -1.88313
O    -0.37951   1.53473   0.96895
C     0.26307   0.38285   1.50070
C     1.64550   0.75517   1.88010
N     2.72520   1.07283   2.15725
C    -0.62079  -0.05855   2.72715
C    -0.30149   0.54344   4.05078
O    -1.53837  -0.81578   2.50657
C     0.26452  -0.62070   0.35903
C    -0.20848  -0.03511  -0.74690
C    -0.32633  -0.61682  -2.12432
F    -0.17557   0.42224  -3.05092
C    -1.64320  -1.34137  -2.39092
C    -2.05372  -2.31934  -1.28832
C    -0.99711  -3.37658  -0.90632
C    -0.27991  -3.17649   0.42951
C     0.81190  -2.04160   0.52405
C     1.41941  -2.19410   1.86335
N     1.85209  -2.34405   2.92723
C     1.89090  -2.28818  -0.45568
N     2.72149  -2.50410  -1.23411
H     2.32377   3.14759  -2.70779
H     3.48531   2.45138  -1.51670
H     2.49417   3.89262  -1.07939
H    -2.93136   0.57670   0.93630
H    -2.84303   2.32780   1.14511
H    -4.09978   1.63526   0.05061
H    -1.10015   0.32531   4.77013
H     0.65087   0.11597   4.40853
H    -0.14913   1.62956   3.94665
H     0.51701  -1.30060  -2.29219
H    -2.43106  -0.58752  -2.52785
H    -1.52583  -1.87298  -3.34854
H    -2.95975  -2.83383  -1.64102
H    -2.35818  -1.75870  -0.38990
H    -1.49599  -4.35222  -0.80636
H    -0.26230  -3.50983  -1.71823
H    -1.00398  -2.95419   1.22509
H     0.24132  -4.10628   0.69997
