24
Generated by autodE on: 2022-06-05. E = -779.520548 Ha
C     2.93276   1.83922   1.78390
O     1.81192   1.16713   1.18844
C     1.92291   0.85358  -0.10324
O     2.90546   1.09348  -0.78024
C     0.72286   0.16053  -0.62214
O    -0.21508   0.00976   0.27710
C    -1.36105  -0.58264   0.43413
C    -1.92237  -1.55273  -0.43461
N    -2.44498  -2.43032  -0.99598
C    -2.03440  -0.31215   1.72899
C    -1.34901   0.62882   2.67503
O    -3.10735  -0.85312   1.95729
C     0.46165  -0.15302  -2.03597
C     1.57073  -0.08761  -3.04109
O    -0.69651  -0.41596  -2.35433
H     3.83120   1.20810   1.72634
H     2.65519   2.01284   2.82947
H     3.12151   2.79483   1.27406
H    -1.22054   1.61596   2.20402
H    -1.95183   0.72123   3.58666
H    -0.34195   0.25700   2.91963
H     1.93361   0.94657  -3.14012
H     2.42696  -0.69712  -2.71723
H     1.18557  -0.44201  -4.00584
