24
Generated by autodE on: 2022-07-27. E = -779.520174 Ha
C     1.01600   1.10994  -3.70279
O     0.04743   0.62013  -2.75643
C     0.36825   0.72075  -1.47738
O     1.42151   1.15798  -1.05109
C    -0.71115   0.27924  -0.56000
O    -0.42126  -0.16415   0.62464
C     0.62603  -0.57398   1.29480
C     1.88687  -0.81447   0.70499
N     2.93791  -1.10843   0.29331
C     0.32947  -0.90691   2.71017
C     1.46006  -1.46099   3.52546
O    -0.79629  -0.71737   3.14954
C    -2.16212   0.49330  -0.77903
C    -3.08631   0.01361   0.30634
O    -2.55833   1.02312  -1.80810
H     1.96012   0.55718  -3.59720
H     1.19438   2.18231  -3.54052
H     0.57787   0.93874  -4.69195
H     1.81498  -2.40833   3.08795
H     1.12035  -1.62984   4.55461
H     2.31242  -0.76233   3.52103
H    -3.07562  -1.08898   0.33018
H    -4.10242   0.36601   0.09055
H    -2.75732   0.35490   1.29819
