22
Generated by autodE on: 2022-06-05. E = -595.971239 Ha
N    -2.79866   2.53210   0.15628
C    -1.96312   1.81277  -0.19914
C    -0.91959   0.85928  -0.62757
C    -0.54499   1.16799  -2.02545
N    -0.24720   1.36737  -3.12712
C     0.27739   0.90528   0.22364
C     1.21561   0.41693   0.81123
C     2.11004  -0.60391   1.35118
F     1.81141  -0.80778   2.70390
C     1.83686  -1.89236   0.56475
C     0.35322  -2.28642   0.41701
C    -0.44760  -1.72447  -0.79119
C    -1.48383  -0.61463  -0.53896
H     3.17189  -0.32177   1.29080
H     2.30648  -1.78500  -0.42650
H     2.38440  -2.69011   1.09197
H     0.33843  -3.38260   0.32458
H    -0.17678  -2.06508   1.35865
H    -1.02780  -2.55957  -1.21118
H     0.24125  -1.41857  -1.59701
H    -2.30220  -0.67740  -1.27123
H    -1.92364  -0.71289   0.46425
