46
Generated by autodE on: 2022-06-05. E = -1375.508169 Ha. Imaginary frequency = -142.2 cm-1
C     1.49454   3.02036  -3.12150
O     0.46347   2.41137  -2.32142
C     0.60649   2.48631  -1.00947
O     1.54001   3.01847  -0.44063
C    -0.53245   1.89735  -0.24715
C    -1.96164   2.14496  -0.59344
C    -2.98256   1.68554   0.40837
O    -2.25370   2.65066  -1.66630
O    -0.35362   1.57020   1.00784
C     0.63790   0.98672   1.63595
C     1.95384   0.86670   1.11860
N     3.05174   0.68516   0.77362
C     0.32341   0.65958   3.05879
C     1.42580   0.05742   3.87592
O    -0.79000   0.90930   3.49070
C     0.00901  -1.09836   0.05931
C    -0.39484  -0.51207  -0.93944
C    -0.96697  -0.43986  -2.29539
F    -2.36512  -0.41383  -2.16078
C    -0.55149  -1.65918  -3.11206
C    -0.87732  -3.03371  -2.51110
C     0.10909  -3.64260  -1.48507
C    -0.27640  -3.56607  -0.00044
C     0.32315  -2.34220   0.79461
C    -0.28403  -2.34692   2.14193
N    -0.80006  -2.38019   3.17800
C     1.78571  -2.51201   0.93471
N     2.92747  -2.68527   1.02036
H     1.19816   2.85389  -4.16259
H     1.55486   4.09566  -2.90398
H     2.46239   2.54315  -2.91371
H    -2.99797   0.58309   0.40977
H    -3.96884   2.06396   0.11300
H    -2.72752   2.00466   1.42845
H     1.02170  -0.29265   4.83322
H     1.92005  -0.77000   3.34557
H     2.19340   0.82871   4.05945
H    -0.67969   0.48181  -2.81571
H    -1.06312  -1.55417  -4.08229
H     0.52859  -1.56895  -3.31298
H    -1.89476  -3.01212  -2.08609
H    -0.92816  -3.73092  -3.36079
H     0.18940  -4.71648  -1.70868
H     1.12368  -3.23733  -1.63896
H    -1.36790  -3.49983   0.11553
H     0.06072  -4.46452   0.53647
