22
Generated by autodE on: 2022-06-02. E = -574.845905 Ha
C     3.58413  -0.04983  -0.69942
O     2.19500   0.28879  -0.62669
C     1.35370  -0.68447  -0.22280
O     1.74165  -1.80708   0.06638
C    -0.02448  -0.21127  -0.18077
C    -1.10892  -0.80166   0.36825
C    -1.30828  -2.08838   1.06997
C    -2.22746   0.26155   0.22497
C    -1.87789   1.40336   1.20453
C    -0.80525   1.99309   0.66774
C    -0.51424   1.19136  -0.62026
O    -1.85525   0.86006  -1.02805
H     3.74722  -0.86788  -1.41661
H     4.10070   0.85631  -1.03724
H     3.96178  -0.35478   0.28778
H    -1.68707  -1.89469   2.08948
H    -0.38528  -2.67653   1.12956
H    -2.08716  -2.68243   0.56133
H    -3.25675  -0.11357   0.22432
H    -2.38964   1.60145   2.14557
H    -0.19592   2.81254   1.04761
H     0.05183   1.68790  -1.41379
