49
Generated by autodE on: 2022-06-22. E = -1219.929038 Ha
C     5.00040  -0.20790  -1.10975
N     3.80241  -0.53244  -0.35881
C     2.63223   0.07411  -0.60501
O     2.52444   0.95289  -1.47304
C     1.40945  -0.32199   0.25029
C     1.67959  -1.46425   1.22883
N     0.94406   0.87689   0.98464
C    -0.27141   1.41513   0.38416
C    -1.17361   2.18703   1.37629
C    -0.71253   2.34762   2.78820
O    -2.21677   2.65584   0.95434
C     0.08198   2.46500  -0.68719
O     0.80740   3.40567  -0.43013
O    -0.47076   2.25990  -1.87568
C    -0.10790   3.17447  -2.92422
C    -0.97981   0.15494  -0.14918
C    -1.73465  -0.61128   0.95141
C    -1.90590  -2.06564   0.59059
C    -2.91387  -2.91997   1.22634
N    -3.69218  -2.34050   2.17802
O    -3.07531  -4.12574   0.93861
C    -1.06430  -2.65016  -0.31462
N    -0.06666  -2.01923  -0.97247
C     0.78995  -2.70798  -1.91931
C     0.21151  -0.62323  -0.72776
H     5.83119  -0.81789  -0.73523
H     5.26069   0.85631  -0.99871
H     4.86399  -0.41220  -2.18362
H     3.84816  -1.25848   0.34604
H     2.02347  -2.37532   0.71826
H     2.43891  -1.16396   1.96681
H     0.76351  -1.71142   1.77971
H     1.66246   1.59101   1.08536
H    -1.46406   2.89909   3.36762
H    -0.51367   1.36468   3.23912
H     0.24467   2.89511   2.79057
H    -0.39080   4.20098  -2.65255
H    -0.65948   2.84752  -3.81272
H     0.97525   3.12244  -3.10418
H    -1.67989   0.41338  -0.95073
H    -1.20315  -0.51433   1.91399
H    -2.71290  -0.12555   1.08902
H    -4.39010  -2.90957   2.64336
H    -3.57881  -1.37821   2.46805
H    -1.18964  -3.70744  -0.55707
H     1.84621  -2.66053  -1.60740
H     0.49425  -3.76278  -1.98561
H     0.71332  -2.25282  -2.92138
H     0.46595  -0.16530  -1.69144
