20
Generated by autodE on: 2022-06-22. E = -457.715346 Ha
C    -3.15338   0.31891  -0.21722
N    -1.80939   0.06756   0.27646
C    -1.63644  -0.59303   1.49923
C    -0.42924  -0.94733   1.96739
C     0.85597  -0.67174   1.22642
C     0.56731   0.01013  -0.10105
C     1.65326   0.36645  -1.02839
N     2.90760   0.03749  -0.62935
O     1.46605   0.93671  -2.12254
C    -0.70425   0.32271  -0.47888
H    -3.10038   0.95550  -1.10936
H    -3.66897  -0.61926  -0.48479
H    -3.75354   0.83705   0.54635
H    -2.55933  -0.79633   2.04548
H    -0.37486  -1.45437   2.93346
H     1.41550  -1.61694   1.07280
H     1.53091  -0.05116   1.85146
H     3.68623   0.26150  -1.23914
H     3.09766  -0.43062   0.24743
H    -0.88317   0.81279  -1.43727
