29
Generated by autodE on: 2022-06-22. E = -762.169936 Ha
C    -3.44934   2.04278   0.60697
N    -2.73788   1.32047  -0.43096
C    -1.95877   0.27171  -0.13188
O    -1.88951  -0.23635   0.99083
C    -1.24746  -0.37736  -1.28930
C    -2.00944  -0.69054  -2.53109
N    -0.02628  -0.80616  -1.15923
C     0.97135  -0.63879  -0.20138
C     2.02084  -1.61810  -0.36697
C     3.25782  -1.60869   0.49579
O     1.90554  -2.48700  -1.25926
C     0.98530   0.56996   0.59020
O     0.27464   1.55162   0.38146
O     1.88316   0.55585   1.59652
C     2.01414   1.76307   2.35191
H    -4.07700   2.81103   0.14005
H    -2.74684   2.52790   1.30455
H    -4.08930   1.36017   1.18488
H    -2.68692   1.72093  -1.36248
H    -1.43054  -1.34435  -3.19908
H    -2.24753   0.23872  -3.07773
H    -2.96814  -1.17247  -2.28192
H     0.31219  -1.46609  -1.87891
H     2.99840  -1.76792   1.55262
H     3.77995  -0.64288   0.43758
H     3.92223  -2.41324   0.15384
H     2.31581   2.60111   1.70619
H     1.06721   2.01587   2.85133
H     2.79220   1.56787   3.09969
