49
Generated by autodE on: 2022-06-22. E = -1219.858697 Ha. Imaginary frequency = -436.5 cm-1
C     4.46874   0.27274  -2.45935
N     3.78472  -0.16026  -1.25749
C     2.56544   0.32489  -0.93598
O     2.01565   1.17442  -1.65726
C     1.92010  -0.26675   0.27169
C     2.65664  -1.28965   1.08991
N     1.00003   0.43926   0.97782
C    -0.04627   1.15777   0.44239
C    -1.18450   1.23872   1.39327
C    -2.28041   2.24137   1.15611
O    -1.21689   0.48128   2.36521
C     0.28319   2.42624  -0.28651
O     1.14829   3.19960   0.07931
O    -0.54631   2.68832  -1.30059
C    -0.34513   3.93109  -1.98474
C    -0.65163  -0.32283  -1.09746
C    -2.05943  -0.72003  -0.68716
C    -2.01918  -1.75302   0.42059
C    -3.08100  -1.91500   1.41866
N    -4.15137  -1.08017   1.31861
O    -3.05012  -2.78845   2.31077
C    -0.96511  -2.61861   0.45887
N     0.11302  -2.51619  -0.36633
C     1.03670  -3.63279  -0.49630
C     0.35028  -1.31332  -1.06093
H     4.68995   1.35197  -2.43189
H     5.41250  -0.27883  -2.54785
H     3.85750   0.07852  -3.35478
H     4.24809  -0.82072  -0.64594
H     3.14200  -2.04562   0.46313
H     3.43441  -0.81675   1.71470
H     1.95418  -1.81008   1.75778
H     0.68390  -0.03941   1.82747
H    -3.15272   1.97913   1.76767
H    -1.91297   3.23651   1.46220
H    -2.55783   2.31462   0.09756
H    -0.44949   4.77757  -1.29065
H    -1.11822   3.97847  -2.76042
H     0.65450   3.95398  -2.44212
H    -0.56719   0.40780  -1.89776
H    -2.58702  -1.13129  -1.57359
H    -2.64031   0.16807  -0.40767
H    -4.14158  -0.27022   0.71170
H    -4.83879  -1.10470   2.06399
H    -0.94737  -3.44925   1.16773
H     1.27974  -4.05484   0.48992
H     1.96355  -3.29124  -0.97102
H     0.60589  -4.43437  -1.12030
H     1.06978  -1.39835  -1.87275
