33
Generated by autodE on: 2022-06-17. E = -727.431648 Ha
C     2.60085   1.94215  -0.08175
O     1.44350   1.10663  -0.23451
C     1.50039   0.15215  -1.16429
O     2.47158  -0.03598  -1.86968
C     0.25636  -0.71622  -1.21222
C     0.26457  -1.79088  -0.08858
C     1.62484  -2.36737   0.27872
C    -0.44978  -1.07611   1.07586
C    -1.39139  -1.97396   1.86585
N    -1.13581   0.05525   0.41361
C    -1.35399   1.22442   1.07371
C    -1.72519   2.42618   0.24377
O    -1.26624   1.27208   2.30659
N    -0.97926   0.04556  -0.99759
C    -2.14251  -0.55289  -1.65837
H     3.47619   1.33546   0.19082
H     2.80700   2.48654  -1.01426
H     2.35912   2.64494   0.72352
H     0.24382  -1.17694  -2.20624
H    -0.38200  -2.60822  -0.44343
H     2.29909  -1.59144   0.67549
H     1.51554  -3.14109   1.05412
H     2.10933  -2.82917  -0.59492
H     0.29574  -0.64387   1.76271
H    -0.82925  -2.80924   2.31281
H    -2.17493  -2.39040   1.21406
H    -1.87139  -1.41124   2.67960
H    -0.87592   2.71467  -0.39295
H    -1.97804   3.25277   0.91969
H    -2.57646   2.21348  -0.41877
H    -1.99125  -0.50786  -2.74617
H    -2.32423  -1.60380  -1.36752
H    -3.03469   0.03844  -1.41075
