12
Generated by autodE on: 2022-06-17. E = -157.300301 Ha
C    -1.96053   0.11312  -0.03842
C    -0.50981   0.13284  -0.41369
C     0.50980  -0.13292   0.41367
C     1.96053  -0.11306   0.03843
H    -2.52317  -0.61224  -0.65274
H    -2.43322   1.09574  -0.21487
H    -2.10482  -0.15085   1.02110
H    -0.28261   0.38820  -1.45827
H     0.28260  -0.38829   1.45825
H     2.43349  -1.09543   0.21551
H     2.10479   0.15033  -1.02123
H     2.52296   0.61284   0.65231
