21
Generated by autodE on: 2022-07-27. E = -570.064061 Ha
C     3.16424   0.09112  -1.19180
O     1.78518  -0.15382  -1.51387
C     1.01750  -0.60535  -0.52507
O     1.41614  -0.89568   0.58385
C    -0.36384  -0.83939  -1.01328
N    -1.43278  -0.67397  -0.28797
C    -2.72933  -1.15560  -0.79167
N    -1.53006  -0.08578   0.92167
C    -0.77262   1.02338   1.11991
C    -0.94117   1.63523   2.48666
O    -0.01326   1.55250   0.28613
H     3.62545   0.47008  -2.11058
H     3.23549   0.84014  -0.39017
H     3.65507  -0.83943  -0.87280
H    -0.48867  -1.27382  -2.00612
H    -3.39333  -0.29031  -0.91559
H    -2.59165  -1.68323  -1.74137
H    -3.15191  -1.82963  -0.03587
H    -1.74218   1.15523   3.06235
H    -1.14224   2.71264   2.38328
H     0.01196   1.53194   3.03156
