33
Generated by autodE on: 2022-06-17. E = -727.344354 Ha. Imaginary frequency = -329.3 cm-1
C     3.37047   0.74468  -1.70069
O     2.06838   0.18150  -1.90601
C     1.15245   0.42224  -0.95115
O     1.38517   1.10126   0.03030
C    -0.09690  -0.27966  -1.30249
C     0.37642  -2.01016   0.29021
C     1.88320  -2.05276   0.31061
C    -0.36378  -1.52972   1.36178
C    -1.64567  -2.17222   1.81491
N    -1.41228   0.28837   0.51035
C    -1.18113   1.52398   1.01028
C    -1.05280   1.56130   2.51439
O    -1.11139   2.55983   0.33236
N    -1.29458   0.01759  -0.79308
C    -2.46739  -0.61587  -1.40817
H     3.96548   0.45407  -2.57411
H     3.82462   0.34502  -0.78256
H     3.30918   1.84027  -1.63045
H    -0.10162  -0.76737  -2.27697
H    -0.11168  -2.74927  -0.35613
H     2.30361  -1.21112   0.88080
H     2.22180  -2.98165   0.80350
H     2.32296  -2.04768  -0.69699
H     0.18271  -0.96655   2.12551
H    -2.22325  -2.57273   0.96893
H    -1.40531  -3.02274   2.47968
H    -2.28705  -1.48341   2.38159
H     0.02103   1.55864   2.76500
H    -1.52566   0.69895   3.00190
H    -1.48535   2.49720   2.89523
H    -3.36273  -0.07783  -1.07691
H    -2.38009  -0.56360  -2.50005
H    -2.53196  -1.66863  -1.09427
