16
Generated by autodE on: 2022-06-07. E = -2920.439892 Ha
C     1.85810  -1.72794   0.45243
C     0.60748  -1.21148  -0.15242
C     0.06343   0.00999  -0.21303
Br    0.69604   1.63269   0.49298
C    -1.34487  -0.16118  -0.82877
C    -2.19938  -0.92103   0.21486
C    -1.66983  -2.14720   0.25713
C    -0.50556  -2.11101  -0.76016
O    -1.05936  -1.22330  -1.75403
H     1.62116  -2.41805   1.28201
H     2.48367  -0.91424   0.84660
H     2.44635  -2.30537  -0.28051
H    -1.78748   0.71446  -1.31546
H    -3.00645  -0.48532   0.80276
H    -1.92426  -2.99643   0.89038
H    -0.17631  -3.06336  -1.19088
