36
Generated by autodE on: 2022-07-27. E = -804.653836 Ha
C     5.15083  -0.23612   0.00499
N     3.78308   0.24537   0.08622
C     2.81372  -0.26819  -0.67869
O     2.98470  -1.17247  -1.50260
C     1.44226   0.35306  -0.53568
C     1.28600   1.78790  -0.87640
N     0.43733  -0.42154  -0.20970
C     0.67378  -1.78114   0.31374
C    -0.91622  -0.03847  -0.43610
C    -1.33721   0.21706  -1.77185
C    -0.40180  -0.05509  -2.94329
O    -2.49629   0.61276  -2.06206
C    -1.75363   0.05643   0.75868
C    -3.16948   0.03168   0.71391
C    -3.92864   0.12409   1.88002
C    -3.31517   0.24168   3.13310
C    -1.91856   0.27246   3.19843
C    -1.15241   0.18922   2.03548
H     5.57859  -0.04433  -0.99148
H     5.19560  -1.31937   0.19443
H     5.75306   0.28395   0.75873
H     3.55639   0.99735   0.73082
H     0.31207   2.16762  -0.53941
H     2.10949   2.36232  -0.42481
H     1.36059   1.93974  -1.96663
H    -0.21114  -2.08893   0.87858
H     0.81887  -2.46719  -0.53106
H     1.55387  -1.79844   0.96895
H     0.50354  -0.62925  -2.71076
H    -0.09858   0.90197  -3.39982
H    -0.98318  -0.59895  -3.70342
H    -3.66244  -0.05753  -0.25090
H    -5.01947   0.09788   1.80840
H    -3.91631   0.31184   4.04260
H    -1.41670   0.37339   4.16444
H    -0.06461   0.24069   2.11700
