36
Generated by autodE on: 2022-06-07. E = -804.652062 Ha
C     4.09180  -1.51901   1.16316
N     3.49736  -0.46922   0.35876
C     2.24613  -0.59086  -0.11947
O     1.60739  -1.64665  -0.06640
C     1.70255   0.60263  -0.86494
C     2.58544   1.33895  -1.81870
N     0.41542   0.86524  -0.80069
C    -0.17133   1.77203  -1.80597
C    -0.40899   0.47824   0.28468
C     0.13050   0.60655   1.59156
C    -0.75401   0.32354   2.79457
O     1.31942   0.96052   1.82129
C    -1.75452   0.00670  -0.07636
C    -1.89004  -0.90350  -1.14921
C    -3.14204  -1.36957  -1.55108
C    -4.29840  -0.95122  -0.88347
C    -4.18380  -0.04969   0.18043
C    -2.93318   0.43179   0.57234
H     5.14913  -1.28300   1.33573
H     3.58267  -1.61592   2.13732
H     4.02153  -2.48415   0.64262
H     3.88789   0.46534   0.42810
H     2.45522   2.42831  -1.72897
H     2.34024   1.06664  -2.86030
H     3.63925   1.09038  -1.65248
H    -1.24946   1.83465  -1.64084
H     0.26503   2.77439  -1.69216
H     0.03000   1.40341  -2.81992
H    -0.10421   0.01315   3.62522
H    -1.50209  -0.45766   2.60621
H    -1.28868   1.23480   3.10927
H    -0.98969  -1.25847  -1.65589
H    -3.21442  -2.07481  -2.38311
H    -5.27950  -1.31952  -1.19235
H    -5.08015   0.29811   0.70047
H    -2.87255   1.16798   1.37427
