52
Generated by autodE on: 2022-06-07. E = -3725.071182 Ha. Imaginary frequency = -238.4 cm-1
C     4.79232  -1.41944  -1.33921
N     3.45639  -1.05442  -1.76313
C     2.41507  -1.08830  -0.89905
O     2.58927  -1.46702   0.27309
C     1.11194  -0.56773  -1.40907
C     1.14398   0.21517  -2.69342
C     0.98460   1.53826  -0.21072
C     1.41951   1.31814   1.24822
O     0.27349   0.61043   1.76042
C    -0.68938   1.60124   1.35823
C    -0.05946   2.83765   2.03732
Br   -1.06218   4.32259   2.60974
C     1.26984   2.68388   1.97274
C     2.40350   3.57319   2.32068
C    -0.37616   1.70722  -0.14399
C    -1.27614  -0.49912  -1.05654
C    -1.70511   0.02282  -2.38701
C    -1.49659  -0.87849  -3.58477
O    -2.38939   1.03887  -2.50059
C    -2.40667  -0.84662  -0.15934
C    -3.72768  -0.92687  -0.66272
C    -4.80750  -1.23314   0.16410
C    -4.61266  -1.48235   1.52603
C    -3.31681  -1.41455   2.04464
C    -2.23604  -1.09947   1.22145
N    -0.04329  -1.11990  -0.92612
C     0.04528  -2.36675  -0.12812
H     4.84427  -2.47410  -1.02250
H     5.48409  -1.26850  -2.17697
H     5.12184  -0.79973  -0.49034
H     3.30685  -0.81224  -2.73455
H     0.29503   0.90016  -2.79290
H     2.04919   0.83233  -2.73558
H     1.14285  -0.44429  -3.57752
H     1.66122   1.93236  -0.96406
H     2.34919   0.76823   1.42544
H    -1.70808   1.34199   1.66034
H     2.05912   4.50578   2.79050
H     3.10920   3.07086   3.00380
H     2.97554   3.83281   1.41183
H    -1.03447   2.18810  -0.86303
H    -1.30512  -0.28796  -4.49209
H    -0.71701  -1.63396  -3.44149
H    -2.45406  -1.41128  -3.72320
H    -3.92625  -0.75123  -1.71961
H    -5.81066  -1.28718  -0.26584
H    -5.45876  -1.72496   2.17298
H    -3.14049  -1.59786   3.10748
H    -1.24735  -1.02553   1.66372
H    -0.92886  -2.86205  -0.16021
H     0.78429  -3.02591  -0.59453
H     0.34214  -2.18398   0.90682
