36
Generated by autodE on: 2022-10-20. E = -804.608056 Ha
C     1.53788   2.60214   1.01218
O     1.04486   1.27296   1.07722
C     0.48406   0.75474  -0.10876
C     1.48343   0.57672  -1.27884
C     2.74498  -0.13713  -0.75034
C     2.26513  -1.60417  -0.55188
C     0.77232  -1.54519  -0.93877
C     0.81076  -0.53844  -2.10195
C     0.00513  -0.73869   0.15870
C     0.32100  -1.22143   1.49586
N     0.55771  -1.64731   2.54917
C    -1.56308  -0.66043  -0.04649
C    -2.20868  -1.88384  -0.68149
C    -2.23395  -0.39065   1.25857
N    -2.80739  -0.15393   2.23854
O    -1.76094   0.46503  -0.87406
C    -0.83893   1.49296  -0.48174
C    -0.79918   2.53492  -1.57777
H     2.05164   2.79424   1.96437
H     0.72436   3.33867   0.89977
H     2.25820   2.73669   0.18830
H     1.68933   1.51072  -1.81375
H     3.11511   0.31489   0.17860
H     3.54877  -0.07587  -1.49747
H     2.77982  -2.28997  -1.23973
H     2.42968  -1.98032   0.46690
H     0.32774  -2.52664  -1.13454
H    -0.17456  -0.27604  -2.50239
H     1.44939  -0.89063  -2.92506
H    -1.80206  -2.03701  -1.68863
H    -3.29391  -1.72831  -0.75688
H    -2.01624  -2.77537  -0.06858
H    -1.20222   1.94950   0.45677
H    -0.48345   2.10243  -2.53726
H    -1.80236   2.96817  -1.70665
H    -0.10723   3.34616  -1.31318
