14
Generated by autodE on: 2022-10-20. E = -324.767321 Ha
C     2.77593  -0.77112   0.41565
C     1.51902  -0.02398   0.23098
O     0.42908  -0.67685   0.06376
C    -0.84556  -0.24154  -0.12506
C    -1.86994  -1.31427  -0.29351
C    -1.07363   1.12755  -0.15682
N    -1.23747   2.29475  -0.17765
H     3.24470  -0.50718   1.38125
H     3.50622  -0.49833  -0.36796
H     2.59585  -1.85464   0.38321
H     1.47319   1.07182   0.22993
H    -2.85914  -0.85229  -0.42258
H    -1.67762  -1.94435  -1.18087
H    -1.92523  -1.98232   0.58476
