22
Generated by autodE on: 2022-10-20. E = -479.733110 Ha
C     2.76167  -0.08496  -0.59550
O     1.63989  -0.95779  -0.76507
C     0.48717  -0.63731  -0.19396
C     0.08877   0.42833   0.57077
C     0.77727   1.59236   0.96294
N     1.28572   2.57890   1.33067
C    -1.42653   0.24905   0.77169
C    -2.09670   0.52835  -0.60532
C    -1.59881  -0.66492  -1.47242
C    -0.72712  -1.49214  -0.46960
C    -1.51524  -1.28837   0.83922
H     3.60070  -0.55529  -1.12187
H     2.55174   0.90127  -1.03573
H     3.00695   0.02434   0.47171
H    -1.84110   0.81709   1.61324
H    -1.79855   1.50633  -1.00850
H    -3.19265   0.52164  -0.50679
H    -2.43492  -1.28534  -1.82611
H    -1.01610  -0.35127  -2.35007
H    -0.49429  -2.51421  -0.79101
H    -1.01052  -1.71240   1.71919
H    -2.54709  -1.66574   0.77879
