14
Generated by autodE on: 2022-06-17. E = -270.683227 Ha
C    -1.08612   1.00557   0.57816
C    -0.76698  -0.39422   0.13750
C    -1.88186  -1.38691   0.23512
C     0.45439  -0.77389  -0.32867
C     1.61746   0.08871  -0.47276
O     1.68413   1.28501  -0.19909
H    -0.42399   1.31904   1.40093
H    -0.91293   1.72484  -0.23787
H    -2.13018   1.08839   0.91094
H    -1.58721  -2.39076  -0.10040
H    -2.24230  -1.44468   1.27735
H    -2.74348  -1.04307  -0.36393
H     0.60450  -1.81483  -0.62961
H     2.52051  -0.43018  -0.87682
