17
Generated by autodE on: 2022-06-17. E = -493.267379 Ha
N     4.27752  -1.50310  -0.73360
C     3.49764  -0.63601  -0.64213
C     2.59895   0.43349  -0.54100
O     1.35809   0.13009  -0.27569
N     0.44416   1.06881  -0.16291
C    -0.79116   0.51446   0.11899
C    -1.84595   1.44487   0.25684
C    -3.13540   1.00467   0.54111
C    -3.39732  -0.36238   0.69289
C    -2.35298  -1.28874   0.55668
C    -1.05830  -0.86661   0.27244
H     2.88309   1.48073  -0.67023
H    -1.62607   2.50728   0.13569
H    -3.94328   1.73244   0.64544
H    -4.40935  -0.70661   0.91615
H    -2.55428  -2.35614   0.67474
H    -0.25155  -1.59209   0.16811
