31
Generated by autodE on: 2022-06-17. E = -763.933726 Ha. Imaginary frequency = -307.9 cm-1
C    -0.73696  -0.87028   2.11155
C    -1.54232  -0.99791   0.85925
C    -1.69876  -2.38930   0.31701
C    -2.36686   0.07096   0.50309
C    -3.38556   0.07255  -0.54693
O    -3.51045  -0.74492  -1.45040
C    -1.00394   1.43824  -0.92305
C    -0.39899   2.08443   0.18808
N     0.01337   2.65630   1.11547
O    -0.53753   0.39058  -1.55706
N     0.18780  -0.62388  -1.00490
C     1.40061  -0.28517  -0.42644
C     2.02784  -1.32195   0.30937
C     3.29456  -1.13818   0.85584
C     3.98643   0.06378   0.66267
C     3.39515   1.07336  -0.10543
C     2.11975   0.91425  -0.64384
H     0.29502  -1.22321   1.96011
H    -1.17236  -1.52710   2.88620
H    -0.71000   0.15845   2.49371
H    -0.77011  -2.96346   0.43695
H    -2.01278  -2.40093  -0.72942
H    -2.47728  -2.89933   0.91498
H    -2.44653   0.90194   1.20685
H    -4.08023   0.94428  -0.48944
H    -1.71474   2.01530  -1.52032
H     1.50856  -2.27475   0.42036
H     3.75195  -1.94836   1.42881
H     4.98206   0.20444   1.08831
H     3.93653   2.00338  -0.29551
H     1.70512   1.70548  -1.26838
