28
Generated by autodE on: 2022-07-27. E = -741.036028 Ha
C     2.87036  -2.55976   2.27789
N     1.70250  -2.13877   1.53372
C     1.77444  -1.14473   0.61163
O     2.85793  -0.58712   0.35266
C     0.51679  -0.76631  -0.03676
C    -0.71891  -1.19532   0.46250
N    -1.74460  -1.57744   0.88470
N     0.52475   0.16870  -1.08470
C     1.55079   0.01878  -2.13915
C    -0.41675   1.07343  -1.26078
C    -0.55671   1.82367  -2.54206
C    -1.32972   1.42144  -0.12258
O    -0.95258   1.63868   1.01042
O    -2.58953   1.53648  -0.52949
C    -3.55738   1.90649   0.46879
H     3.62010  -3.04643   1.63115
H     3.35904  -1.70383   2.76940
H     2.55954  -3.27552   3.04918
H     0.82417  -2.61991   1.69099
H     2.11417   0.95357  -2.24860
H     2.22330  -0.79557  -1.87209
H     1.04292  -0.21458  -3.08452
H    -1.40851   2.50993  -2.49009
H     0.35296   2.40753  -2.75834
H    -0.70897   1.13298  -3.38894
H    -4.52391   1.93245  -0.04620
H    -3.56861   1.15695   1.27252
H    -3.31690   2.89490   0.88507
