29
Generated by autodE on: 2022-06-29. E = -728.831738 Ha
C    -0.00733   3.73044   0.94442
O    -0.11610   2.53351   0.15814
C    -0.81191   1.52932   0.68839
O    -1.41203   1.60073   1.74559
C    -0.83502   0.31726  -0.16090
C     0.18663  -0.49719  -0.52120
C     1.59686  -0.34579  -0.12029
O     2.05086   0.57638   0.53563
O     2.34685  -1.37005  -0.55393
C     3.73604  -1.34473  -0.20231
C    -0.42976  -1.73551  -1.15071
C    -1.08139  -2.51881   0.03657
C    -2.24641  -1.58600   0.46847
C    -2.12800  -0.38772  -0.53321
C    -1.67846  -1.12022  -1.81331
H     0.57103   4.43711   0.33851
H     0.51850   3.51797   1.88660
H    -1.00302   4.14140   1.16380
H     4.22416  -0.45401  -0.62401
H     4.17331  -2.25452  -0.62952
H     3.85707  -1.34154   0.89083
H     0.24315  -2.33029  -1.77727
H    -1.45460  -3.49050  -0.31829
H    -0.35575  -2.70687   0.84029
H    -3.22386  -2.07313   0.33863
H    -2.17097  -1.24348   1.50919
H    -3.01442   0.25514  -0.58493
H    -1.43499  -0.43478  -2.63819
H    -2.40481  -1.87323  -2.15333
