57
Generated by autodE on: 2022-06-29. E = -1469.848910 Ha. Imaginary frequency = -253.3 cm-1
C     4.15798  -2.11095   2.07109
N     3.30259  -0.94205   2.01126
C     2.80581  -0.51426   0.83443
O     3.21364  -0.94160  -0.25044
C     1.67050   0.47678   0.90339
C     1.13138   0.69097   2.20865
N     0.77713   0.67899   3.31902
N     1.50717   1.38656  -0.11917
C     2.61581   1.61066  -1.07708
C     0.30072   1.99333  -0.39585
C     0.08614   2.54672  -1.77907
C    -0.29256   2.86024   0.67146
O     0.25867   3.13408   1.71968
O    -1.44442   3.41373   0.28751
C    -2.06154   4.31424   1.21747
C    -1.03502   0.03735  -0.24617
C    -2.15479   0.67188   0.48685
O    -2.15958   1.02030   1.65408
O    -3.21185   0.86717  -0.32187
C    -4.37279   1.47062   0.26024
C    -1.19877  -0.34203  -1.72357
C    -2.00417  -1.67945  -1.73570
C    -0.98446  -2.70578  -1.16585
C     0.27333  -1.82121  -0.88418
C     0.20377  -0.86107  -2.07418
C    -0.14617  -0.93789   0.29250
C    -0.17755  -1.67987   1.58360
O     0.68026  -2.49809   1.87816
O    -1.22988  -1.43943   2.35967
C    -1.26704  -2.10429   3.62862
H     4.99235  -2.01373   1.36300
H     4.56120  -2.20465   3.08685
H     3.59772  -3.02855   1.82326
H     2.85942  -0.64049   2.87235
H     3.56629   1.45276  -0.56299
H     2.57059   0.95231  -1.95176
H     2.56779   2.65578  -1.40003
H     0.47076   1.88504  -2.56129
H    -0.99132   2.68066  -1.93070
H     0.55733   3.53796  -1.89557
H    -2.31999   3.78117   2.14279
H    -1.38581   5.14983   1.44809
H    -2.96695   4.68332   0.72325
H    -4.15554   2.49592   0.58962
H    -5.13298   1.48360  -0.52965
H    -4.72732   0.88049   1.11751
H    -1.62231   0.44273  -2.35729
H    -2.28980  -1.92782  -2.76859
H    -2.92368  -1.60990  -1.14005
H    -0.72506  -3.47485  -1.90823
H    -1.34694  -3.22247  -0.26555
H     1.20009  -2.38026  -0.72957
H     0.22834  -1.38734  -3.03933
H     0.98712  -0.10360  -2.06934
H    -2.17520  -1.74585   4.12691
H    -1.31143  -3.19447   3.49275
H    -0.37987  -1.84284   4.22214
