46
Generated by autodE on: 2022-06-20. E = -960.732677 Ha
C     5.43834  -2.25020   0.92430
C     4.57274  -1.61571   0.10792
C     4.90904  -1.31902  -1.32954
C     3.26317  -1.19942   0.62135
C     2.31192  -0.56223  -0.08384
C     0.97883  -0.20520   0.48838
N     0.59484   1.19830   0.17901
C     0.83887   2.14443   1.18603
O     1.87480   2.06351   1.85551
N    -0.06896   3.13051   1.30821
C     0.09062   4.17984   2.29360
O    -0.74064   1.22200  -0.31141
C    -1.35087   0.01275   0.16153
C    -2.64614  -0.22414  -0.56045
C    -2.88319   0.28855  -1.84392
C    -4.08239   0.00740  -2.50442
C    -5.05235  -0.79483  -1.89531
C    -4.82170  -1.30692  -0.61436
C    -3.62826  -1.01692   0.05146
C    -0.22923  -1.03994  -0.03898
C    -0.07292  -1.42519  -1.51293
C    -0.43835  -2.28545   0.81515
H     5.18189  -2.46053   1.96714
H     6.42165  -2.57518   0.57282
H     4.18386  -1.79289  -2.01189
H     4.86713  -0.23552  -1.53041
H     5.91476  -1.68009  -1.58684
H     3.06411  -1.43471   1.67357
H     2.47533  -0.29232  -1.13023
H     1.01852  -0.32299   1.58147
H    -0.92492   3.05257   0.76984
H    -0.68712   4.93674   2.13319
H     1.07489   4.66245   2.19704
H     0.00014   3.79796   3.32446
H    -1.54335   0.10764   1.24563
H    -2.12811   0.91204  -2.32374
H    -4.25845   0.41624  -3.50236
H    -5.98777  -1.01587  -2.41488
H    -5.57738  -1.92813  -0.12769
H    -3.45492  -1.40563   1.05779
H     0.08941  -0.54772  -2.15540
H    -0.97190  -1.94908  -1.86842
H     0.78300  -2.10389  -1.64014
H    -0.62479  -2.02416   1.86836
H    -1.29410  -2.87083   0.44562
H     0.45425  -2.92915   0.77315
