23
Generated by autodE on: 2022-06-20. E = -609.135917 Ha
C     4.65497   0.79802  -0.06424
N     3.80857  -0.28640   0.38966
C     2.44908  -0.23003   0.19319
O     1.88318   0.84691  -0.11792
N     1.84395  -1.43568   0.38525
O     0.45834  -1.28587   0.05910
C    -0.18907  -0.32593   0.59869
C    -1.51203  -0.00621   0.14821
C    -2.24816   0.95161   0.87811
C    -3.54066   1.28112   0.48020
C    -4.10175   0.66063  -0.64198
C    -3.37333  -0.28964  -1.37428
C    -2.08137  -0.62309  -0.98909
H     5.66472   0.66430   0.34760
H     4.73683   0.85807  -1.16554
H     4.26009   1.75847   0.29451
H     4.21017  -1.21872   0.36670
H     0.23100   0.17160   1.47710
H    -1.79618   1.42560   1.75200
H    -4.11408   2.02101   1.04174
H    -5.11580   0.92101  -0.95390
H    -3.82107  -0.76254  -2.25049
H    -1.49936  -1.35205  -1.55491
