23
Generated by autodE on: 2022-07-27. E = -609.135939 Ha
C     4.16778   1.29203   1.79464
N     3.05416   1.99487   1.19058
C     1.98214   1.29121   0.69496
O     1.80398   0.08493   0.99516
N     1.18607   2.05020  -0.10925
O     0.17024   1.19630  -0.64679
C    -0.50364   0.47602   0.16508
C    -1.37685  -0.54642  -0.33263
C    -1.40407  -0.90377  -1.69996
C    -2.27959  -1.89148  -2.13211
C    -3.12348  -2.53397  -1.21285
C    -3.09591  -2.19010   0.14364
C    -2.22516  -1.19904   0.58740
H     3.80131   0.58885   2.55514
H     4.82833   2.01913   2.28660
H     4.76929   0.71697   1.06624
H     3.27313   2.85316   0.69426
H    -0.49406   0.72305   1.23024
H    -0.73417  -0.40392  -2.40116
H    -2.30770  -2.17290  -3.18656
H    -3.80570  -3.31339  -1.55993
H    -3.75433  -2.69698   0.85157
H    -2.19129  -0.91740   1.64207
