49
Generated by autodE on: 2022-06-02. E = -1074.409656 Ha
C     4.41185  -0.73738  -1.74635
N     3.21735  -0.09223  -1.24976
C     2.79832  -0.14786   0.02129
O     3.42788  -0.72123   0.92181
C     1.46114   0.58666   0.29559
C     1.58205   1.35223   1.62369
N     1.18058   1.48871  -0.82763
C    -0.24649   1.80959  -0.83788
C    -0.70307   2.38462  -2.16996
C    -0.96851   0.49795  -0.36057
C    -2.05788   0.99412   0.59038
O    -1.86664   1.74202   1.51873
O    -3.29027   0.65458   0.21097
C    -4.36985   1.13235   1.02354
C    -1.44711  -0.41510  -1.52285
C    -2.07964  -1.72962  -0.99433
C    -0.85362  -2.56352  -0.53423
C     0.31685  -1.57653  -0.72782
C    -0.10559  -0.94124  -2.06453
C     0.19957  -0.37374   0.29141
C    -0.14500  -0.98058   1.65262
C     0.88833  -1.80699   2.36784
O    -1.28040  -0.91735   2.09396
H     4.83262  -1.37248  -0.95705
H     4.17639  -1.36401  -2.62018
H     5.17347   0.00068  -2.04675
H     2.60728   0.43758  -1.87088
H     2.34516   2.14016   1.52352
H     1.88077   0.70175   2.45446
H     0.62279   1.82147   1.87867
H     1.72855   2.34392  -0.72866
H    -0.45697   2.57149  -0.07235
H    -1.78204   2.60224  -2.14508
H    -0.17592   3.33321  -2.35945
H    -0.49857   1.71053  -3.01312
H    -5.28815   0.75649   0.55754
H    -4.27630   0.74378   2.04804
H    -4.37760   2.23148   1.05001
H    -2.08632   0.11444  -2.23825
H    -2.61861  -2.22836  -1.81335
H    -2.79545  -1.56054  -0.18426
H    -0.96056  -2.95689   0.48424
H    -0.68666  -3.42865  -1.19238
H     1.30177  -2.05646  -0.69139
H    -0.23894  -1.70035  -2.85011
H     0.57099  -0.16376  -2.42658
H     0.65303  -1.83405   3.44049
H     0.80189  -2.83607   1.97777
H     1.91524  -1.47652   2.18322
