21
Generated by autodE on: 2022-07-26. E = -420.784544 Ha
C    -2.93236   1.71063  -1.58976
C    -2.10870   1.42300  -0.38558
N    -1.04476   0.65692  -0.44431
C    -0.15359   0.26624   0.51369
C    -0.34821   0.76847   1.90184
C     0.87317  -0.59647   0.00039
O     0.91800  -0.91307  -1.22320
N     1.83453  -1.06258   0.85922
C     2.78269  -2.07079   0.43814
H    -2.97078   2.79456  -1.80096
H    -3.97842   1.38407  -1.44866
H    -2.53051   1.20162  -2.48002
H    -2.37421   1.84788   0.58427
H    -0.79037   0.25255  -1.35761
H     0.45885   0.45559   2.57704
H    -1.30459   0.42189   2.34147
H    -0.38215   1.87568   1.92873
H     1.66711  -0.97323   1.85394
H     2.31183  -3.05251   0.24296
H     3.53877  -2.20297   1.22369
H     3.29350  -1.76123  -0.48521
