21
Generated by autodE on: 2022-06-02. E = -420.778547 Ha
C    -3.45937  -0.26717   0.57061
C    -2.52431   0.80081   0.11797
N    -1.22741   0.68193  -0.06222
C    -0.28412  -0.29984   0.04922
C    -0.59611  -1.71376   0.43346
C     1.03594   0.21376  -0.21663
O     1.22551   1.41540  -0.56409
N     2.10286  -0.63571  -0.10761
C     3.45990  -0.15009  -0.23233
H    -3.74187  -0.95606  -0.24718
H    -4.38800   0.19700   0.93365
H    -3.04201  -0.87945   1.38419
H    -2.91536   1.79306  -0.11404
H    -0.74292   1.54123  -0.36518
H     0.16452  -2.39795   0.02751
H    -1.55801  -2.04572   0.01889
H    -0.63329  -1.88292   1.52606
H     1.96483  -1.52370   0.35835
H     4.14879  -1.00488  -0.21010
H     3.74281   0.54428   0.58006
H     3.60010   0.38234  -1.18495
