28
Generated by autodE on: 2022-06-02. E = -653.567764 Ha
C     3.33455   0.66890  -1.17345
O     2.00135   0.19251  -0.93063
C     1.63277   0.06980   0.34688
O     2.37383   0.26094   1.29058
C     0.22809  -0.38994   0.48597
C    -0.89936   0.32528   0.25695
C    -0.91912   1.72443  -0.20632
C    -2.22177   2.26107  -0.72883
O     0.09794   2.41468  -0.15583
C    -2.06724  -0.64443   0.38059
C    -1.97331  -1.58038  -0.86773
C    -0.66699  -2.38113  -0.60448
C    -0.18021  -1.81981   0.77576
C    -1.53143  -1.58083   1.48414
H     3.44751   1.68824  -0.77634
H     3.46133   0.66982  -2.26203
H     4.07513   0.00638  -0.70337
H    -2.97066   2.26143   0.08062
H    -2.61429   1.60465  -1.52235
H    -2.08865   3.28132  -1.11097
H    -3.05143  -0.18913   0.53880
H    -1.94475  -1.00574  -1.80415
H    -2.84928  -2.24443  -0.90463
H    -0.86405  -3.45892  -0.51034
H     0.09306  -2.24097  -1.38542
H     0.57416  -2.43383   1.28178
H    -1.42177  -1.08052   2.45734
H    -2.12316  -2.50132   1.59984
