49
Generated by autodE on: 2022-06-02. E = -1074.364053 Ha. Imaginary frequency = -180.7 cm-1
C     4.80682  -1.14811   0.02876
N     3.78280  -0.20488   0.43242
C     2.83540   0.21244  -0.43499
O     2.89918  -0.06235  -1.65158
C     1.70366   0.99977   0.09718
C     1.68136   1.61650   1.45842
N     0.97845   1.56826  -0.90098
C    -0.27019   2.04440  -0.79701
C    -0.97397   2.55042  -2.00915
C    -1.24204   0.06038  -0.16472
C    -2.23007   0.79595   0.64475
O    -2.03986   1.45628   1.65622
O    -3.45933   0.74439   0.07869
C    -4.49418   1.49073   0.72473
C    -1.69965  -0.60314  -1.47267
C    -2.32124  -1.97854  -1.08073
C    -1.07933  -2.80328  -0.62997
C     0.08896  -1.77955  -0.79497
C    -0.36666  -1.06452  -2.07549
C    -0.14233  -0.72635   0.29669
C     0.29383  -1.01330   1.66435
C     1.31218  -2.12431   1.84225
O    -0.12738  -0.43145   2.67162
H     4.37579  -2.12550  -0.24798
H     5.50436  -1.29393   0.86273
H     5.36635  -0.76772  -0.83836
H     3.63994  -0.05250   1.42383
H     2.18016   0.98876   2.20615
H     0.65674   1.76466   1.82039
H     2.18896   2.59808   1.43937
H     1.29256   1.25765  -1.82600
H    -0.53235   2.47880   0.16621
H    -0.71390   3.60612  -2.20442
H    -2.06186   2.50522  -1.85605
H    -0.71489   1.96179  -2.90181
H    -5.39899   1.33626   0.12458
H    -4.24059   2.56066   0.75734
H    -4.65649   1.12807   1.75043
H    -2.34463   0.01968  -2.10113
H    -2.81065  -2.43483  -1.95465
H    -3.07698  -1.87320  -0.29063
H    -0.91247  -3.67126  -1.28608
H    -1.16326  -3.17522   0.40089
H     1.08758  -2.22822  -0.81349
H    -0.50415  -1.76294  -2.91474
H     0.29216  -0.25863  -2.40800
H     2.14810  -2.04837   1.13566
H     0.82955  -3.10017   1.66871
H     1.69113  -2.09842   2.87259
