37
Generated by autodE on: 2022-06-18. E = -913.978089 Ha
C     0.10841  -1.18298  -2.70827
N    -0.33445  -0.98618  -1.33984
C    -0.90298  -2.02098  -0.62899
C    -1.58879  -1.87929   0.52569
C    -1.78343  -0.53968   1.17321
C    -1.59716   0.62040   0.15462
C    -2.87876   0.96877  -0.60229
N    -3.61047  -0.06781  -1.03758
O    -3.17654   2.14844  -0.81841
C    -1.03877   1.83958   0.84207
N     0.21386   2.05912   0.72012
C     0.80106   0.99446  -0.11878
C     1.70096   1.62428  -1.09710
N     2.39501   2.12065  -1.88357
C     1.59277  -0.02480   0.69886
C     2.35533  -0.99523   0.03052
C     3.03116  -1.98054   0.75177
C     2.96192  -2.00205   2.14871
C     2.22185  -1.02472   2.81826
C     1.54129  -0.03852   2.09752
C    -0.45588   0.35614  -0.87212
H    -0.67189  -0.90598  -3.44167
H     1.00285  -0.57706  -2.91667
H     0.37152  -2.23848  -2.86124
H    -0.76754  -3.00494  -1.08489
H    -1.98756  -2.76863   1.01610
H    -2.78399  -0.45744   1.62635
H    -1.07040  -0.40229   2.00300
H    -4.46014   0.11014  -1.56485
H    -3.33119  -1.02682  -0.84233
H    -1.66530   2.49143   1.45979
H     2.42797  -0.98159  -1.05793
H     3.61588  -2.73406   0.21918
H     3.49010  -2.77429   2.71278
H     2.17104  -1.02521   3.90951
H     0.96726   0.72047   2.62831
H    -0.63857   1.01291  -1.73587
