17
Generated by autodE on: 2022-06-18. E = -456.183610 Ha
C     2.79773   1.67611  -0.18365
N     2.04839   0.74560  -0.26129
C     1.17177  -0.22168  -0.17987
C     1.66088  -1.55257  -0.28158
N     2.04362  -2.65127  -0.36471
C    -0.25945   0.06129   0.02008
C    -1.18433  -0.99569   0.11694
C    -2.53928  -0.73076   0.31708
C    -2.99538   0.58712   0.42514
C    -2.08051   1.64148   0.32851
C    -0.72438   1.38612   0.12539
H     3.21233   2.32578  -0.96613
H    -0.84032  -2.02913   0.03729
H    -3.24352  -1.56281   0.39013
H    -4.05676   0.79160   0.58198
H    -2.42544   2.67494   0.40981
H    -0.02344   2.21971   0.04736
