20
Generated by autodE on: 2022-06-18. E = -457.715337 Ha
C    -3.01885   0.76487   0.62965
N    -1.81282   0.04441   0.25583
C    -1.85777  -1.34776   0.10925
C    -0.76573  -2.08482  -0.14806
C     0.61246  -1.49060  -0.30348
C     0.56848   0.01450  -0.09504
C     1.78933   0.83284  -0.17298
N     2.93939   0.16355  -0.43873
O     1.80107   2.07008  -0.00976
C    -0.60184   0.66252   0.16610
H    -3.33829   0.51448   1.65559
H    -3.84318   0.52079  -0.05802
H    -2.82812   1.84406   0.57606
H    -2.85045  -1.78868   0.21719
H    -0.88184  -3.16573  -0.25540
H     1.31498  -1.96851   0.40955
H     1.02355  -1.74007  -1.30350
H     2.97225  -0.83910  -0.57189
H     3.80465   0.68934  -0.49623
H    -0.60547   1.74361   0.31337
