37
Generated by autodE on: 2022-06-18. E = -913.904263 Ha. Imaginary frequency = -342.9 cm-1
C     0.64134  -2.23717  -1.34594
N    -0.48177  -1.64578  -0.63332
C    -1.06170  -2.34533   0.43474
C    -2.22784  -1.97143   0.98460
C    -3.01524  -0.79455   0.46892
C    -2.11590   0.10326  -0.37250
C    -2.64344   1.34611  -0.99346
N    -3.90588   1.68976  -0.65497
O    -1.96453   2.04993  -1.76142
C    -1.22531   1.28129   1.29983
N    -0.06681   1.52036   1.10866
C     1.01840   1.31464   0.31774
C     1.26695   2.27372  -0.68159
N     1.47976   3.05062  -1.53298
C     1.93199   0.21909   0.60261
C     3.12393   0.05722  -0.14055
C     3.95579  -1.03680   0.07957
C     3.63293  -1.99670   1.04943
C     2.46572  -1.83591   1.80278
C     1.62238  -0.74546   1.58634
C    -0.99376  -0.44711  -0.99175
H     0.30500  -3.06976  -1.98625
H     1.11450  -1.47454  -1.97502
H     1.38371  -2.62024  -0.63229
H    -0.49311  -3.21116   0.77674
H    -2.62828  -2.55432   1.81638
H    -3.88975  -1.14201  -0.12014
H    -3.44691  -0.23289   1.31658
H    -4.30083   2.53975  -1.04376
H    -4.48315   1.11860  -0.05052
H    -1.97599   1.53522   2.05603
H     3.38559   0.79229  -0.90505
H     4.86763  -1.14426  -0.51328
H     4.28788  -2.85420   1.21839
H     2.20071  -2.57262   2.56533
H     0.71337  -0.64373   2.18040
H    -0.49907   0.07295  -1.81016
