15
Generated by autodE on: 2022-06-16. E = -417.081650 Ha
C    -1.90127  -1.05295   0.42214
C    -1.71406   0.42318   0.21647
O    -2.60318   1.24522   0.39306
C    -0.37436   0.90739  -0.22641
C    -0.15244   2.37246  -0.44766
N     0.55589   0.04728  -0.40473
C     1.36643  -0.81700  -0.69110
C     2.35672  -1.45813   0.04995
N     3.21916  -2.07655   0.54186
H    -2.94091  -1.25413   0.70854
H    -1.22087  -1.41688   1.20886
H    -1.65245  -1.60457  -0.49917
H     0.87361   2.57003  -0.78262
H    -0.86186   2.74536  -1.20336
H    -0.34320   2.92577   0.48546
