27
Generated by autodE on: 2022-06-16. E = -574.375999 Ha. Imaginary frequency = -335.0 cm-1
C     2.28988   1.18508  -0.31957
C     2.08531  -0.26467   0.03963
O     2.90466  -1.13278  -0.26593
C     0.89107  -0.64336   0.82135
C     0.81511  -1.98960   1.46706
N     0.02019   0.28523   1.14454
C    -0.89878   0.96494   0.70418
C    -1.58650   2.09175   1.15958
N    -2.25664   3.01956   1.39651
C    -1.26591   0.21718  -1.40507
C    -2.71241  -0.15789  -1.20039
C    -0.26771  -0.70948  -1.61194
C    -0.46212  -2.19671  -1.56837
H     1.38374   1.64641  -0.73530
H     3.11241   1.26361  -1.04182
H     2.55483   1.74850   0.59105
H    -0.22766  -2.27228   1.66766
H     1.37079  -2.00165   2.42078
H     1.27898  -2.73211   0.80560
H    -1.07589   1.23749  -1.75442
H    -2.82464  -1.00541  -0.50772
H    -3.29779   0.68582  -0.80540
H    -3.17078  -0.45847  -2.16003
H     0.66493  -0.35416  -2.05712
H    -1.13680  -2.51121  -0.75736
H     0.49737  -2.71973  -1.44080
H    -0.90648  -2.56321  -2.51335
