39
Generated by autodE on: 2022-10-22. E = -677.621677 Ha
C    -1.76901   2.21643   0.70385
C    -0.97273   1.13924   0.79066
C    -0.48792   0.62657   2.12113
C    -0.51543   0.43004  -0.46189
C     0.95727  -0.02515  -0.48426
C     1.92593   1.11389  -0.53465
C     2.96535   1.36097   0.28462
C     3.35813   0.49567   1.45238
C     3.84024   2.57053   0.08308
C     0.93855  -0.91670  -1.73340
N    -0.31474  -1.67826  -1.66877
C    -1.30493  -0.87217  -0.92297
C    -2.48687  -0.46923  -1.80952
C    -1.79042  -1.68407   0.28987
C    -3.08619  -1.30757   0.95020
O    -1.13854  -2.64016   0.68833
H    -2.12191   2.73846   1.59858
H    -2.09029   2.60930  -0.26543
H     0.59165   0.81845   2.23440
H    -0.61655  -0.46140   2.22721
H    -1.01100   1.11994   2.95273
H    -0.64671   1.13541  -1.29794
H     1.14653  -0.66944   0.38666
H     1.74604   1.82420  -1.35280
H     2.72504  -0.39316   1.56955
H     4.40430   0.15909   1.34499
H     3.31677   1.07427   2.39191
H     4.89268   2.27391  -0.07380
H     3.51892   3.17589  -0.77766
H     3.83326   3.21338   0.98146
H     0.96283  -0.28051  -2.63596
H     1.79966  -1.59787  -1.78861
H    -0.13419  -2.49150  -1.07861
H    -3.07937  -1.34808  -2.10688
H    -3.15068   0.24721  -1.30409
H    -2.10135   0.00982  -2.72153
H    -3.16517  -1.80818   1.92374
H    -3.91534  -1.64797   0.30747
H    -3.19071  -0.21977   1.06039
