23
Generated by autodE on: 2022-10-22. E = -351.521386 Ha
C     3.08141   2.17557   0.26467
C     2.29898   1.16867  -0.18219
C     2.78542   0.20695  -1.23604
C     0.95170   0.99672   0.35762
C     0.07148   0.03092  -0.00718
C    -1.25555  -0.09641   0.55957
C    -2.19077  -1.02821   0.24528
C    -3.53059  -1.03328   0.92537
C    -1.99746  -2.11304  -0.77600
H     4.09312   2.32735  -0.12171
H     2.72475   2.87226   1.02960
H     2.13357   0.22855  -2.12524
H     3.80974   0.44848  -1.55299
H     2.77357  -0.83073  -0.86316
H     0.64575   1.72138   1.12180
H     0.36997  -0.69526  -0.76799
H    -1.51788   0.64604   1.32299
H    -3.70520  -1.99587   1.43902
H    -3.62617  -0.22305   1.66308
H    -4.34526  -0.93062   0.18604
H    -1.01722  -2.08586  -1.26920
H    -2.77655  -2.04601  -1.55583
H    -2.11958  -3.10550  -0.30707
