16
Generated by autodE on: 2022-10-22. E = -326.046174 Ha
C     2.02985  -0.43019  -1.05935
N     1.49753   0.31535  -0.11824
C     0.22230   0.42950   0.38604
C     0.02377   1.42584   1.49471
C    -0.82740  -0.36682  -0.13816
C    -2.20354  -0.17479   0.47426
O    -0.67619  -1.20603  -1.06629
H     3.09523  -0.30276  -1.24868
H     1.40444  -1.13077  -1.60208
H     2.16114   0.94546   0.34000
H     0.97308   1.92347   1.74786
H    -0.69696   2.21747   1.22595
H    -0.35323   0.95582   2.41938
H    -2.19626  -0.39231   1.55500
H    -2.55208   0.86502   0.36137
H    -2.91519  -0.84811  -0.02281
