16
Generated by autodE on: 2022-10-26. E = -326.054593 Ha
C     2.52975  -0.51972  -0.09505
N     1.28225  -0.41737   0.28261
C     0.19302   0.11495  -0.34585
C     0.37654   0.69988  -1.70262
C    -1.00393   0.02916   0.42241
C    -2.28618   0.58785  -0.15818
O    -1.01483  -0.49863   1.56704
H     2.84048  -0.13941  -1.06769
H     3.23781  -0.99054   0.58548
H     1.01657  -0.78519   1.20838
H     1.11031   1.52894  -1.69296
H     0.76419  -0.04931  -2.41967
H    -0.56625   1.09100  -2.10322
H    -2.19019   1.66371  -0.37624
H    -2.54761   0.08703  -1.10428
H    -3.10155   0.43984   0.56245
