39
Generated by autodE on: 2022-10-22. E = -677.561514 Ha. Imaginary frequency = -409.8 cm-1
C    -2.56557   1.17601   1.58556
C    -1.30810   0.67801   1.52230
C    -0.71552  -0.05034   2.70452
C    -0.48192   0.84835   0.33010
C     0.93011   0.71367   0.34093
C     1.72658   1.51478  -0.60625
C     3.06049   1.72561  -0.58325
C     3.98270   1.14250   0.45314
C     3.73403   2.57400  -1.62803
C     1.34941  -1.24470  -0.30314
N     0.12531  -1.81918  -0.26291
C    -0.95847  -1.24471  -0.86637
C    -0.82310  -0.68841  -2.25138
C    -2.23041  -1.60055  -0.26821
C    -3.49348  -1.06999  -0.89344
O    -2.28220  -2.27237   0.77904
H    -3.18263   1.05139   2.47962
H    -3.00107   1.72676   0.74671
H    -0.26621  -1.01088   2.41061
H     0.09032   0.54259   3.16924
H    -1.47740  -0.24710   3.47189
H    -0.93265   1.42308  -0.48336
H     1.38810   0.53612   1.31658
H     1.15739   1.96960  -1.42625
H     3.45871   0.56988   1.22995
H     4.72124   0.47188  -0.02169
H     4.56684   1.93817   0.94910
H     4.51334   2.00043  -2.16216
H     3.01983   2.95917  -2.37143
H     4.25132   3.43544  -1.16761
H     1.72721  -0.93853  -1.27812
H     2.08994  -1.66826   0.37932
H    -0.13876  -2.29167   0.60477
H     0.07070  -0.05944  -2.35966
H    -1.69048  -0.07271  -2.51762
H    -0.74403  -1.50175  -2.99715
H    -4.35274  -1.35422  -0.27242
H    -3.45390   0.02720  -0.97852
H    -3.62610  -1.47232  -1.91088
