49
Generated by autodE on: 2022-06-20. E = -983.042153 Ha
C     4.53525   0.00082  -2.74257
C     3.93400  -0.05828  -1.53714
C     4.70491  -0.35711  -0.27857
C     2.48722   0.16274  -1.43405
C     1.77342   0.13509  -0.29391
C     0.29829   0.37697  -0.23984
C    -0.11858   1.70531   0.47676
C     0.72825   2.03578   1.71137
C    -0.02231   2.87233  -0.50942
C    -1.56062   1.34589   0.93627
C    -2.59404   1.58511  -0.17022
C    -3.36289   2.87199  -0.12556
O    -2.79408   0.73833  -1.02887
N    -1.44699  -0.04316   1.32743
C    -2.62294  -0.64918   1.91693
C    -0.56550  -0.76806   0.42323
C    -1.30670  -1.63967  -0.64543
C    -0.82961  -1.65564  -2.07285
O    -2.22485  -2.35519  -0.28536
C     0.33915  -1.78988   1.15618
C     0.61758  -1.61805   2.61829
O     0.83204  -2.70271   0.51102
H     3.96278   0.21603  -3.65009
H     5.61071  -0.16391  -2.85349
H     4.31139  -1.25947   0.21838
H     4.61286   0.46710   0.44829
H     5.77171  -0.51407  -0.49134
H     1.96292   0.35664  -2.37713
H     2.28189  -0.05650   0.65434
H    -0.05405   0.47799  -1.27051
H     1.78174   2.19337   1.43637
H     0.36010   2.96380   2.17507
H     0.68314   1.23933   2.46408
H    -0.63353   2.71183  -1.41065
H     1.02253   2.99001  -0.83654
H    -0.33554   3.81731  -0.03997
H    -1.85242   1.95735   1.80515
H    -2.70884   3.72036   0.12450
H    -4.10294   2.79127   0.69031
H    -3.88749   3.04720  -1.07411
H    -2.39833  -1.66488   2.26874
H    -2.92979  -0.04535   2.78750
H    -3.48910  -0.72082   1.23311
H    -1.12268  -0.72555  -2.58224
H    -1.29283  -2.50567  -2.59119
H     0.26612  -1.73208  -2.11566
H     1.14001  -0.66425   2.78612
H     1.24537  -2.44816   2.96705
H    -0.31680  -1.57461   3.19540
