26
Generated by autodE on: 2022-07-27. E = -631.477476 Ha
C    -1.97492   2.99124  -1.02567
C    -1.08526   1.79905  -0.79268
O    -0.24270   1.44466  -1.61370
C    -1.27400   1.15763   0.51669
N    -0.45910   0.26281   1.05875
C    -0.50861   0.15877   2.53893
C     0.35169  -0.57780   0.32103
C    -0.14896  -1.14275  -0.93777
C    -1.64203  -1.26843  -1.18331
O     0.61349  -1.64092  -1.76881
C     1.67094  -0.90000   0.87234
C     2.52177  -1.97012   0.23294
O     2.10674  -0.29416   1.85960
H    -1.72368   3.46244  -1.98407
H    -1.88062   3.72196  -0.20689
H    -3.02600   2.65582  -1.03891
H    -2.01964   1.58998   1.18417
H    -0.16468  -0.83003   2.85169
H    -1.55278   0.30446   2.84305
H     0.11740   0.93783   2.98716
H    -1.82044  -2.31970  -1.45630
H    -2.28603  -1.00133  -0.33671
H    -1.92169  -0.65485  -2.05270
H     3.34759  -2.19840   0.92049
H     2.93283  -1.60669  -0.72047
H     1.94810  -2.87927   0.00591
