26
Generated by autodE on: 2022-06-20. E = -631.479118 Ha
C     3.44093  -0.46763  -0.57255
C     2.08682   0.16912  -0.64424
O     1.51867   0.43401  -1.69092
C     1.52791   0.64440   0.66308
N     0.25806   0.75788   0.92374
C    -0.13493   1.50890   2.13757
C    -0.71816  -0.01219   0.23746
C    -0.34230  -1.38709   0.01842
C    -1.38691  -2.40370  -0.37545
O     0.83681  -1.77787   0.16128
C    -1.98248   0.57671  -0.13454
C    -2.13020   2.08802  -0.08009
O    -2.94105  -0.09185  -0.55743
H     4.18694   0.33258  -0.42149
H     3.66163  -0.98617  -1.51462
H     3.51281  -1.15598   0.28085
H     2.23327   1.02001   1.41061
H     0.63635   1.37085   2.90518
H    -0.21925   2.57657   1.90081
H    -1.09191   1.12480   2.50346
H    -0.92508  -3.39954  -0.33775
H    -1.73263  -2.20177  -1.40123
H    -2.27371  -2.36220   0.26971
H    -1.19042   2.62307  -0.27413
H    -2.87997   2.37985  -0.82814
H    -2.50697   2.39706   0.90788
