52
Generated by autodE on: 2022-06-25. E = -1524.454957 Ha
C     2.06950  -0.35343  -3.27178
N     1.96861  -0.47593  -1.83030
C     2.21224   0.52858  -0.99131
O     2.65300   1.64069  -1.27741
C     1.82937   0.24124   0.48929
C     2.99039   0.60022   1.32071
N     3.93885   0.84658   1.93822
O     1.50615  -1.12125   0.68497
C     0.12782  -1.33108   0.98139
C    -0.04168  -1.64691   2.49332
C     1.20337  -2.04232   3.22907
O    -1.14141  -1.62541   3.00332
C    -0.26911  -2.56820   0.14526
O     0.44659  -3.01101  -0.72682
O    -1.41210  -3.09996   0.53278
C    -1.90554  -4.21203  -0.23601
C    -0.56504   0.03334   0.55944
O    -1.71163   0.41920   1.24625
C    -2.96671  -0.20505   0.96224
C    -0.87303   0.09054  -0.95445
O    -1.33942  -0.89585  -1.50140
C    -0.73136   1.38186  -1.65978
C    -1.22239   1.43885  -3.07229
C    -0.14460   2.46583  -1.07177
C     0.00648   3.76051  -1.80157
C     0.42106   2.40112   0.29642
O     0.80808   3.38612   0.89694
C     0.55462   1.02519   0.96115
O     0.69862   1.10339   2.34670
C    -0.24664   1.81107   3.16000
H     2.91889  -0.93695  -3.65944
H     1.14430  -0.72793  -3.73277
H     2.21012   0.70081  -3.53744
H     1.63582  -1.35937  -1.43637
H     0.93190  -2.37255   4.23958
H     1.72036  -2.84890   2.68583
H     1.90010  -1.19341   3.28664
H    -1.18748  -5.04286  -0.20566
H    -2.85115  -4.50275   0.23402
H    -2.07152  -3.89762  -1.27594
H    -2.89851  -1.29700   1.03791
H    -3.34335   0.07917  -0.03260
H    -3.65703   0.17379   1.72672
H    -1.98310   2.22795  -3.18671
H    -1.65420   0.48101  -3.38244
H    -0.39393   1.69545  -3.75240
H     0.40338   4.54158  -1.14321
H     0.69701   3.62989  -2.65173
H    -0.95636   4.09134  -2.22023
H     0.33460   2.39976   3.88413
H    -0.88033   1.08938   3.69413
H    -0.88354   2.48368   2.57561
