26
Generated by autodE on: 2022-07-27. E = -834.918846 Ha
C     1.37263   2.89588  -2.61310
N     0.97936   1.98251  -1.56019
C     1.33194   2.15260  -0.27578
O     2.01452   3.07823   0.17293
C     0.82724   1.09362   0.66153
C     1.16433   1.22112   2.03639
N     1.53488   1.50025   3.10543
O     0.13067   0.17122   0.10928
C    -0.55656  -0.93761   0.22610
C    -0.68672  -1.56945   1.53957
C    -1.47429  -2.83526   1.70613
O    -0.12613  -1.02382   2.48992
C    -1.07756  -1.32850  -1.10168
O    -0.86076  -0.67908  -2.11243
O    -1.79715  -2.44458  -1.07532
C    -2.34263  -2.89372  -2.32629
H     1.96805   2.37476  -3.37896
H     1.97599   3.70321  -2.18235
H     0.48752   3.33311  -3.10091
H     0.41034   1.17151  -1.80602
H    -1.05799  -3.63528   1.07638
H    -1.43911  -3.12826   2.76310
H    -2.51679  -2.68589   1.38817
H    -1.53470  -3.09669  -3.04338
H    -2.89215  -3.81373  -2.09832
H    -3.02095  -2.13435  -2.74049
