26
Generated by autodE on: 2022-06-25. E = -834.920762 Ha
C     3.14357   2.47929  -0.04633
N     2.09386   1.47970  -0.02652
C     2.38421   0.17108   0.01916
O     3.52625  -0.29761   0.04658
C     1.20085  -0.75000   0.03776
C     1.45913  -2.14704   0.05271
N     1.87253  -3.23663   0.04348
O     0.05899  -0.16445   0.00951
C    -1.24666  -0.28229   0.00621
C    -1.86484  -1.60222   0.11802
C    -3.35844  -1.73661   0.09166
O    -1.12144  -2.57530   0.24012
C    -1.93389   1.01938  -0.08098
O    -3.14369   1.15108  -0.10304
O    -1.07385   2.04529  -0.13782
C    -1.64277   3.36003  -0.23187
H     3.81709   2.32925  -0.90458
H     3.75094   2.43852   0.87195
H     2.68323   3.47121  -0.12396
H     1.11880   1.77408  -0.04583
H    -3.61421  -2.80051   0.17704
H    -3.81082  -1.16957   0.91895
H    -3.76703  -1.31948  -0.84092
H    -2.25314   3.44853  -1.14189
H    -0.79228   4.04961  -0.27439
H    -2.26361   3.57274   0.65014
