26
Generated by autodE on: 2022-06-25. E = -689.460832 Ha
C    -2.83448   1.58202  -0.23524
O    -2.04944   0.65260  -0.98988
C    -0.84529   0.30443  -0.44860
C    -0.59158  -0.93268   0.06446
O    -1.41135  -1.97568   0.19389
C    -2.81249  -1.89701  -0.08799
C     0.78902  -1.26722   0.56348
O     0.99908  -2.38633   1.01106
C     1.85442  -0.23328   0.51754
C     3.20661  -0.60392   1.04349
C     1.58819   0.99774   0.01489
C     2.62925   2.07020  -0.04766
C     0.23058   1.31651  -0.52163
O    -0.00006   2.40931  -1.03654
H    -3.75952   1.74438  -0.80415
H    -2.31057   2.54070  -0.10893
H    -3.08352   1.16541   0.75489
H    -3.21483  -2.88450   0.17133
H    -2.99272  -1.68836  -1.15018
H    -3.29478  -1.12980   0.53463
H     3.97516  -0.48353   0.26233
H     3.49641   0.05957   1.87497
H     3.22444  -1.64092   1.39861
H     2.22615   2.98966  -0.48768
H     3.01552   2.29590   0.96013
H     3.49368   1.73900  -0.64688
