52
Generated by autodE on: 2022-06-25. E = -1524.388910 Ha. Imaginary frequency = -279.9 cm-1
C     2.86494   2.24757  -2.19878
N     2.38764   1.22307  -1.29046
C     2.57703   1.32475   0.03319
O     3.22392   2.22551   0.57702
C     1.88725   0.28161   0.86218
C     2.30172   0.18336   2.21943
N     2.62621   0.27552   3.33365
O     1.39218  -0.71991   0.14494
C     0.42590  -1.59378   0.41496
C     0.54372  -2.46465   1.62937
C    -0.54963  -3.42899   1.97585
O     1.56588  -2.36953   2.29117
C    -0.10655  -2.09563  -0.89818
O     0.26231  -1.64839  -1.96699
O    -1.01761  -3.04359  -0.75517
C    -1.61070  -3.57421  -1.95310
C    -1.00103  -0.01178   1.46844
O    -1.22701  -0.63350   2.65261
C    -2.35803  -0.18078   3.41903
C    -1.96367  -0.23451   0.36427
O    -2.87564  -1.04679   0.48915
C    -1.76818   0.53853  -0.89374
C    -2.55635   0.11628  -2.09270
C    -0.91634   1.59730  -0.93153
C    -0.69730   2.37925  -2.18899
C    -0.25238   2.09325   0.30363
O     0.24991   3.20916   0.34020
C    -0.24750   1.20130   1.50924
O     0.00266   1.64876   2.73760
C     0.69360   2.87736   3.03020
H     3.96441   2.23981  -2.26970
H     2.44438   2.06051  -3.19346
H     2.55155   3.24474  -1.85484
H     1.81143   0.46411  -1.64564
H    -0.39185  -4.36037   1.40837
H    -1.53959  -3.03769   1.71952
H    -0.47812  -3.65255   3.04853
H    -0.83600  -4.02299  -2.59014
H    -2.32146  -4.33689  -1.61732
H    -2.13137  -2.77910  -2.50268
H    -2.31421  -0.72338   4.37156
H    -2.29166   0.90077   3.60668
H    -3.29746  -0.41673   2.89973
H    -1.88174  -0.14755  -2.92211
H    -3.19095   0.94416  -2.44930
H    -3.19437  -0.74460  -1.86230
H     0.02205   3.19125  -2.03859
H    -0.33186   1.71621  -2.98937
H    -1.64573   2.81336  -2.54671
H     0.04466   3.73759   2.82185
H     1.62243   2.95763   2.45600
H     0.91389   2.82261   4.10310
