14
Generated by autodE on: 2022-06-17. E = -270.687345 Ha
C    -1.29610   1.44900   0.17648
C    -0.97728  -0.01150   0.05957
C    -2.16998  -0.91849   0.07229
C     0.27424  -0.52955  -0.05229
C     1.50948   0.23368  -0.07882
O     2.62096  -0.28067  -0.17865
H    -1.96036   1.74664  -0.65266
H    -1.86520   1.62723   1.10461
H    -0.41822   2.10515   0.17356
H    -2.74469  -0.77539   1.00376
H    -2.85396  -0.65614  -0.75340
H    -1.89127  -1.97743  -0.01712
H     0.40043  -1.61460  -0.13146
H     1.42228   1.34079  -0.00339
