21
Generated by autodE on: 2022-06-17. E = -628.048210 Ha
C    -4.46158  -0.46795  -0.86827
O    -3.21555  -0.80616  -0.23080
C    -2.40893   0.21036   0.07080
O    -2.63886   1.38521  -0.13579
C    -1.22183  -0.24691   0.79115
N    -0.10121  -0.52015   0.43130
C     1.13118  -0.76894   0.15971
C     1.61438  -2.15924  -0.12682
C     2.02793   0.40631   0.15670
O     1.67827   1.54798   0.40252
O     3.28365   0.05711  -0.14770
C     4.25356   1.11290  -0.18027
H    -5.05485   0.19185  -0.21927
H    -4.27737   0.02807  -1.83175
H    -4.98350  -1.41865  -1.02438
H     2.04463  -2.21854  -1.13908
H     2.40403  -2.44626   0.58551
H     0.78696  -2.87684  -0.05088
H     4.33023   1.59566   0.80486
H     3.97909   1.86460  -0.93461
H     5.20599   0.63966  -0.44544
