20
Generated by autodE on: 2022-06-21. E = -457.715323 Ha
C    -2.88754   1.12085   0.71752
N    -1.78444   0.26903   0.30478
C    -2.02508  -1.08257   0.02796
C    -1.04796  -1.93796  -0.31189
C     0.40079  -1.53197  -0.42554
C     0.56576  -0.05686  -0.09778
C     1.88668   0.59028  -0.13355
N     2.93132  -0.20885  -0.46724
O     2.06960   1.79806   0.12266
C    -0.50145   0.72187   0.23798
H    -3.69423   1.10579  -0.03242
H    -3.30729   0.79293   1.68315
H    -2.53043   2.15267   0.82423
H    -3.06999  -1.38782   0.10706
H    -1.31530  -2.97703  -0.51736
H     0.77953  -1.75582  -1.44403
H     1.02472  -2.15947   0.24367
H     2.81981  -1.18946  -0.69055
H     3.85982   0.19664  -0.50870
H    -0.35292   1.77768   0.47025
