17
Generated by autodE on: 2022-06-02. E = -372.136029 Ha
F     2.15987   0.84012  -0.15666
C     1.03625   0.12089  -0.01364
C     0.65791  -0.94923  -0.72169
C    -0.77112  -1.23328  -0.26773
C    -1.66336  -0.08646  -0.84745
C    -1.18173   1.16290  -0.05176
C    -0.08213   0.57342   0.89363
C    -0.69906  -0.80448   1.21644
H     1.18123  -1.42160  -1.55318
H    -1.14135  -2.24542  -0.47601
H    -1.53181   0.02046  -1.93370
H    -2.72701  -0.29507  -0.65585
H    -1.99615   1.59569   0.54801
H    -0.77835   1.95766  -0.69552
H     0.21585   1.22123   1.72753
H    -0.03451  -1.44265   1.81701
H    -1.68662  -0.73270   1.69830
