54
Generated by autodE on: 2022-06-02. E = -1252.020260 Ha. Imaginary frequency = -267.6 cm-1
C     1.42978   2.46967   3.41264
N     1.27128   1.79251   2.14399
C     1.12970   0.45716   2.09137
O     1.30482  -0.26975   3.07856
C     1.00033  -0.18338   0.71773
C     2.30405  -0.17601  -0.00615
C     2.41923  -0.54092  -1.36606
C     3.63929  -0.48474  -2.03882
C     4.79645  -0.06189  -1.37885
C     4.71293   0.28840  -0.02856
C     3.49348   0.22740   0.64582
N     0.18077  -1.29880   0.63406
C     0.74404  -2.55604   0.09537
C    -1.16927  -1.31642   0.90441
C    -1.96838  -2.48919   0.40403
C    -1.77804  -0.48707   1.94780
O    -1.29347   0.47925   2.52230
O    -3.04505  -0.88573   2.22518
C    -3.77210  -0.07687   3.15166
C    -1.83472   0.58711  -0.42482
C    -2.23697   0.04697  -1.78480
C    -2.64998   1.30683  -2.61285
C    -1.29598   2.05106  -2.81292
C    -0.26851   1.12315  -2.08623
C    -0.86672  -0.26036  -2.41251
C    -0.61990   1.22577  -0.61920
F    -0.34329   2.42240  -0.00291
H     1.59790   3.53919   3.23128
H     0.53615   2.35516   4.05130
H     2.29219   2.06683   3.96510
H     0.94148   2.32081   1.34426
H     1.54606  -0.87601  -1.91526
H     3.68072  -0.77117  -3.09246
H     5.75104  -0.01264  -1.90761
H     5.60798   0.60310   0.51355
H     3.47874   0.47976   1.70508
H     0.34759  -3.39526   0.67756
H     0.50627  -2.72034  -0.96340
H     1.82909  -2.53762   0.22030
H    -3.02881  -2.22016   0.37883
H    -1.87001  -3.37827   1.05205
H    -1.66994  -2.77508  -0.61178
H    -4.76177  -0.54031   3.24559
H    -3.87392   0.95336   2.77840
H    -3.27324  -0.05511   4.13187
H    -2.58045   0.97363   0.26928
H    -2.97828  -0.76219  -1.78694
H    -3.40021   1.91386  -2.08546
H    -3.08426   0.99926  -3.57666
H    -1.03494   2.13395  -3.87846
H    -1.29224   3.06385  -2.38556
H     0.77958   1.30633  -2.35033
H    -0.92118  -0.44714  -3.49516
H    -0.36118  -1.10108  -1.93012
