29
Generated by autodE on: 2022-06-16. E = -650.671479 Ha
C    -2.33511   1.10709   1.70155
C    -2.49872  -0.04436   0.71910
N    -2.05988  -1.31706   1.30042
O    -0.64344  -1.33058   1.06862
C    -0.36302  -0.73255  -0.21096
C    -0.17498  -1.83524  -1.18079
N    -0.04729  -2.72472  -1.91552
C     0.91484   0.09160  -0.11080
C     1.65043   0.39522  -1.26461
C     2.78929   1.19942  -1.18366
C     3.20842   1.70070   0.05264
C     2.48301   1.38949   1.20606
C     1.34039   0.58808   1.12687
C    -1.67037   0.07356  -0.58614
C    -1.44892   1.47552  -1.13077
H    -2.72788   2.04145   1.27532
H    -2.89655   0.88984   2.62258
H    -1.28187   1.27183   1.96961
H    -3.56310  -0.16006   0.46697
H    -2.42548  -2.07198   0.70833
H     1.33294   0.00445  -2.23401
H     3.35247   1.43137  -2.09048
H     4.10086   2.32752   0.11676
H     2.80752   1.77012   2.17734
H     0.77985   0.34152   2.02775
H    -2.19573  -0.51530  -1.35124
H    -0.89322   1.44453  -2.07928
H    -2.42172   1.95186  -1.32751
H    -0.88893   2.11123  -0.43159
