44
Generated by autodE on: 2022-06-14. E = -1419.176022 Ha
C    -3.30488   1.57962   2.42414
N    -2.51205   1.05802   1.32769
C    -2.87543   0.00715   0.58077
O    -3.93343  -0.61789   0.74196
C    -1.85872  -0.44617  -0.48478
C    -2.46891  -0.54864  -1.91553
O    -1.77203  -0.28211  -2.90174
N    -3.72582  -0.99377  -1.98490
C    -4.42848  -1.21620  -3.23139
C    -0.65230   0.36423  -0.52942
C     0.54677   0.65330  -0.50742
C     1.96547   0.39165  -0.40557
Cl    2.88365   1.53652  -1.56250
C     2.52041   0.59034   0.99477
C     1.67294   0.87071   2.06735
C     2.18649   0.99497   3.35958
C     3.55901   0.83792   3.59117
C     4.41290   0.55617   2.51561
C     3.89701   0.43298   1.22867
C     2.16450  -1.05377  -0.93593
C     1.29564  -2.12552  -0.24141
C    -0.12270  -2.42515  -0.80634
C    -1.34879  -1.87748  -0.04781
H    -4.20081   0.96047   2.54197
H    -3.61201   2.61792   2.22550
H    -2.72851   1.55915   3.36123
H    -1.60672   1.49900   1.12776
H    -4.20220  -1.14334  -1.09127
H    -4.75203  -2.26550  -3.31636
H    -3.75907  -0.98330  -4.06844
H    -5.32037  -0.57351  -3.30004
H     0.59824   0.98586   1.89704
H     1.50931   1.21500   4.18814
H     3.96230   0.93550   4.60200
H     5.48575   0.43413   2.68272
H     4.56872   0.22754   0.39332
H     1.95435  -1.04619  -2.01578
H     3.22824  -1.30278  -0.81105
H     1.23081  -1.90907   0.83846
H     1.87149  -3.06038  -0.31671
H    -0.17537  -2.13192  -1.86727
H    -0.24067  -3.51958  -0.79837
H    -2.20061  -2.56208  -0.16184
H    -1.12124  -1.82422   1.02864
