23
Generated by autodE on: 2022-06-14. E = -741.491373 Ha
C    -4.30467   0.00052   0.32934
O    -2.91259   0.23845   0.57057
C    -2.05005  -0.30699  -0.30171
O    -2.41464  -0.97559  -1.25880
C    -0.67724   0.00904   0.05760
C    -0.23916   0.79432   1.16765
O    -0.76406   1.39765   2.07785
O     1.18343   0.78200   1.05388
C     1.53212   0.06402  -0.01338
C     2.95425  -0.11121  -0.37359
C     3.94202   0.55322   0.53730
O     3.26392  -0.76544  -1.35898
N     0.45805  -0.40902  -0.62826
C     0.49195  -1.23627  -1.84338
H    -4.52542  -1.07657   0.35871
H    -4.83998   0.51760   1.13416
H    -4.60486   0.40688  -0.64761
H     3.82754   0.16829   1.56351
H     3.75084   1.63769   0.57652
H     4.95810   0.36056   0.17209
H     1.06647  -2.14694  -1.63957
H    -0.53696  -1.47800  -2.11190
H     0.98171  -0.67216  -2.64535
