67
Generated by autodE on: 2022-06-14. E = -2160.651699 Ha. Imaginary frequency = -338.8 cm-1
C    -7.29666  13.17163   2.39508
N    -6.26792  12.59960   3.24437
C    -5.13367  12.09958   2.73073
O    -4.89533  12.11006   1.52365
C    -4.11716  11.56273   3.79716
C    -3.72508  12.88109   4.52915
O    -4.23384  13.19385   5.60450
N    -2.90192  13.67595   3.82251
C    -2.51918  15.01457   4.22674
C    -4.78775  10.55322   4.76598
C    -5.58975   9.41417   4.12099
C    -4.86972   8.39525   3.21700
C    -4.66080   8.80813   1.74306
C    -3.20247   9.09105   1.32121
Cl   -2.32994   7.42069   1.41919
C    -3.11637   9.55796  -0.12517
C    -2.71682  10.86251  -0.44181
C    -2.69073  11.29707  -1.77051
C    -3.06764  10.43362  -2.80099
C    -3.47320   9.13021  -2.49272
C    -3.49695   8.69653  -1.16683
C    -2.58283  10.01671   2.30881
C    -2.99259  10.87311   3.13094
C    -0.90463  11.06396   4.42309
C    -0.73047  12.24428   5.29053
O     0.03864  13.16525   5.08276
O    -1.50692  12.15196   6.36759
C    -1.42149  13.20802   7.33603
C    -1.22958   9.73793   4.93989
O    -1.69242   9.33160   5.98107
O    -0.86795   8.87009   3.92402
C    -0.55280   9.61754   2.81752
C     0.27617   8.86688   1.78698
C     0.40245   9.40920   0.39626
O     0.84185   7.85801   2.15729
N    -0.22380  10.87307   3.24228
C     0.11266  11.96016   2.32961
H    -7.67541  12.42674   1.67803
H    -6.90810  14.02922   1.82350
H    -8.12663  13.51063   3.02650
H    -6.40274  12.60099   4.24970
H    -2.51735  13.31072   2.95514
H    -2.72389  15.72739   3.41370
H    -1.44942  15.06237   4.47691
H    -3.10665  15.30062   5.10711
H    -5.45781  11.11595   5.43116
H    -3.99660  10.14521   5.41019
H    -6.03068   8.85467   4.96179
H    -6.44611   9.83504   3.56798
H    -5.48532   7.48292   3.21642
H    -3.91025   8.10125   3.67090
H    -5.04943   8.03380   1.06700
H    -5.22188   9.72445   1.51203
H    -2.43322  11.54864   0.35497
H    -2.37173  12.31721  -1.99644
H    -3.04462  10.77165  -3.83959
H    -3.76877   8.44438  -3.29011
H    -3.79622   7.67208  -0.94034
H    -0.41535  13.23384   7.77839
H    -1.64716  14.17704   6.87346
H    -2.16857  12.96938   8.10074
H     1.40660   9.85206   0.28691
H     0.33296   8.56863  -0.30861
H    -0.35166  10.16371   0.15482
H    -0.78499  12.23882   1.75490
H     0.45390  12.81317   2.91913
H     0.91124  11.64519   1.65200
