23
Generated by autodE on: 2022-06-19. E = -629.994561 Ha
C    -2.97899   1.79521  -0.01779
C    -3.30914   0.34508   0.24626
O    -4.47168  -0.04880   0.41803
C    -2.22883  -0.60320   0.29869
O    -1.01216  -0.14719   0.11234
C     0.14612  -0.76378   0.10656
C     0.16310  -2.16204   0.33195
N     0.14836  -3.31326   0.51974
C     1.34031   0.02155  -0.12753
C     1.25708   1.41569  -0.33894
C     2.41410   2.15652  -0.56065
C     3.66782   1.53070  -0.57643
C     3.75642   0.14997  -0.36802
C     2.60592  -0.60325  -0.14493
H    -2.30487   2.18850   0.75951
H    -2.46299   1.90783  -0.98436
H    -3.90916   2.37782  -0.02700
H    -2.38018  -1.66938   0.48632
H     0.28356   1.90754  -0.32701
H     2.33949   3.23411  -0.72289
H     4.57176   2.11825  -0.75084
H     4.72979  -0.34518  -0.37892
H     2.68435  -1.68041   0.01755
