46
Generated by autodE on: 2022-06-19. E = -981.525369 Ha. Imaginary frequency = -259.9 cm-1
C     1.41976  -0.90641  -2.68733
C     0.74127  -2.14219  -2.15438
O     1.18551  -3.28409  -2.36499
C    -0.41885  -1.97839  -1.32602
O    -0.84727  -0.74222  -1.09655
C    -1.77819  -0.45632  -0.19160
C    -2.84103  -1.39047  -0.00586
N    -3.71622  -2.14760   0.13173
C    -1.95514   0.95593   0.13947
C    -1.01380   1.91132  -0.29334
C    -1.17199   3.25220   0.05120
C    -2.25548   3.66046   0.83821
C    -3.18787   2.71430   1.27686
C    -3.04439   1.37160   0.92953
C    -0.60307  -1.45521   1.64008
C     0.49975  -2.07741   1.07653
C     0.58974  -3.58302   1.02425
C     1.71629  -1.33621   0.75491
C     1.89286   0.00590   0.86484
C     3.10452   0.68376   0.46266
C     3.34565   2.01932   0.51722
C     2.36911   3.03683   1.03322
C     4.65222   2.58286   0.03670
H     1.76273  -0.27403  -1.85287
H     0.72107  -0.30189  -3.28647
H     2.28042  -1.20110  -3.30160
H    -1.05029  -2.82113  -1.04450
H    -0.16071   1.59799  -0.89539
H    -0.43837   3.98439  -0.29226
H    -2.37115   4.71207   1.10957
H    -4.03572   3.02352   1.89211
H    -3.77779   0.63989   1.27500
H    -1.42234  -2.06252   2.02805
H    -0.54333  -0.43257   2.00949
H     1.05118  -3.93266   0.08791
H    -0.40025  -4.04969   1.12683
H     1.22299  -3.94426   1.85372
H     2.53883  -1.93310   0.34515
H     1.07774   0.61741   1.25979
H     3.89677   0.04182   0.05970
H     2.83732   3.64323   1.82827
H     2.09560   3.74408   0.23043
H     1.44484   2.60164   1.43169
H     4.48557   3.32470  -0.76498
H     5.16743   3.12457   0.85022
H     5.32700   1.80288  -0.34527
