28
Generated by autodE on: 2022-10-06. E = -948.684944 Ha
C     3.71515  -0.35224   1.32027
O     2.48843  -0.40097   0.58317
C     1.83192   0.75504   0.44049
O     2.29600   1.83620   0.72507
C     0.52183   0.50188  -0.32699
C     0.95663  -0.03473  -1.63777
N     1.28473  -0.45415  -2.66868
C    -0.41798  -0.55160   0.33429
C    -0.46414  -0.42448   1.87440
O     0.47391   0.20284   2.43761
O    -1.42378  -0.98878   2.45163
C    -1.75946  -0.28645  -0.37092
C    -2.23955  -1.39164  -1.33618
O    -1.63807  -2.49696  -1.34935
O    -3.22864  -1.08233  -2.05534
C    -1.55019   1.05933  -1.13030
N    -0.32033   1.68350  -0.60452
C    -0.63246   2.51691   0.56346
H     4.11553  -1.37252   1.31156
H     4.42741   0.34021   0.84942
H     3.51654  -0.03236   2.35399
H    -0.08895  -1.57643   0.11249
H    -2.54751  -0.17673   0.38801
H    -1.42865   0.85988  -2.20549
H    -2.39207   1.75315  -1.02282
H     0.28363   2.88210   1.03539
H    -1.24322   2.00724   1.32997
H    -1.20494   3.38701   0.21062
