10
Generated by autodE on: 2022-10-06. E = -455.051699 Ha
O    -2.57965  -1.09395  -0.99195
C    -1.92945  -0.38457  -0.17407
O    -2.42079   0.28096   0.77895
C    -0.42844  -0.34823  -0.37984
C     0.42845   0.34821   0.37985
C     1.92946   0.38457   0.17407
O     2.57965   1.09399   0.99191
O     2.42079  -0.28099  -0.77893
H    -0.04088  -0.94116  -1.21538
H     0.04089   0.94115   1.21538
