18
Generated by autodE on: 2022-10-06. E = -493.588535 Ha
C    -1.67253  -1.41539  -1.26720
N    -1.57521  -0.33715  -0.54669
C    -2.80294   0.44784  -0.29280
C    -0.39740   0.17121   0.02979
C    -0.48133   1.35866   0.78034
N    -0.53479   2.34522   1.40774
C     0.87531  -0.48349  -0.12880
O     1.09619  -1.51992  -0.75267
O     1.86550   0.18762   0.51056
C     3.17740  -0.37092   0.41541
H    -2.65482  -1.68902  -1.64903
H    -0.78135  -2.00528  -1.46465
H    -2.98623   0.49036   0.78802
H    -3.64408  -0.03630  -0.79732
H    -2.66686   1.46483  -0.68062
H     3.83274   0.29931   0.98487
H     3.20826  -1.38177   0.84907
H     3.51051  -0.41839  -0.63231
