28
Generated by autodE on: 2022-10-06. E = -948.634718 Ha. Imaginary frequency = -441.7 cm-1
C     3.51207   0.11471   1.98228
O     2.76742   0.06300   0.76166
C     1.76048   0.95629   0.63663
O     1.56808   1.83951   1.45880
C     0.95951   0.66892  -0.54461
C     1.41886  -0.34233  -1.42644
N     1.78538  -1.16838  -2.16655
C    -0.81024  -0.94997   0.39029
C    -0.51959  -0.52688   1.80655
O     0.38033  -1.17885   2.41147
O    -1.18235   0.43070   2.29771
C    -1.87647  -0.45999  -0.35672
C    -2.54154  -1.33491  -1.42132
O    -1.81281  -2.14584  -2.05317
O    -3.77493  -1.15063  -1.58867
C    -1.05795   0.86796  -1.69282
N    -0.08623   1.47541  -0.98313
C    -0.43312   2.71471  -0.27552
H     4.24834  -0.69565   1.92022
H     4.02589   1.08133   2.08966
H     2.84463  -0.04644   2.84055
H    -0.27700  -1.83306   0.03161
H    -2.54566   0.23618   0.15881
H    -0.75175   0.06592  -2.36410
H    -1.88497   1.49665  -2.02659
H    -1.20800   3.22448  -0.85942
H     0.44641   3.36107  -0.19357
H    -0.81138   2.48683   0.72806
