12
Generated by autodE on: 2022-05-26. E = -377.766669 Ha
C    -2.57562   0.51143   0.20188
N    -1.94588  -0.60980   0.87476
C    -0.65132  -0.95848   0.84795
O    -0.16859  -1.92139   1.45002
C     0.24021  -0.12309   0.03680
C     1.08103   0.48654  -0.59770
C     2.01933   1.18211  -1.31717
N     2.81512   1.77542  -1.93027
H    -2.98433   1.22528   0.93326
H    -1.84409   1.03584  -0.42489
H    -3.39583   0.15967  -0.44127
H    -2.53282  -1.20958   1.45317
