29
Generated by autodE on: 2022-05-26. E = -891.283388 Ha. Imaginary frequency = -315.3 cm-1
C     4.39941   0.24597   1.09080
N     2.96248   0.04226   1.07014
C     2.36601  -0.60247   0.05129
O     2.97906  -1.12546  -0.88648
C     0.90054  -0.63268   0.08551
C    -0.19491  -1.23342   0.27051
C    -0.91451  -2.34202   0.66842
N    -1.56829  -3.25438   0.99560
C    -1.60073   0.35759  -0.33035
C    -2.94291  -0.26245  -0.43443
C    -3.79061  -0.24543   0.79609
O    -3.25397  -0.78525  -1.49301
N    -0.85528   0.71250  -1.40402
C     0.29817   1.26713  -0.94266
C     1.41282   1.75928  -1.78662
C    -0.02345   1.75018   0.40414
O     0.57611   2.45049   1.18458
O    -1.26534   1.18369   0.70579
H     4.72848   0.87046   0.24394
H     4.93034  -0.71565   1.03236
H     4.67138   0.74505   2.02848
H     2.37955   0.54069   1.73644
H    -3.24304  -0.70390   1.63524
H    -4.00573   0.79712   1.08269
H    -4.72453  -0.78972   0.61007
H    -0.94457   0.21955  -2.29359
H     1.73989   0.98664  -2.49558
H     2.25761   2.03954  -1.14382
H     1.10043   2.65342  -2.35078
