34
Generated by autodE on: 2022-05-29. E = -994.002084 Ha
C     3.96752  -0.02105   1.47113
N     2.63484  -0.40410   1.05109
C     2.20324  -0.26798  -0.20224
O     2.87725   0.10561  -1.16349
C     0.69540  -0.57444  -0.39183
C     0.55872  -1.28249  -1.68447
N     0.44044  -1.89565  -2.66165
N     0.10761  -1.29858   0.72293
C    -1.31199  -0.97296   0.83258
C    -2.21245  -2.00436   0.14763
C    -3.68550  -1.71825   0.11692
O    -1.73128  -3.02633  -0.31102
C    -1.45781   0.45802   0.28299
C    -1.41247   1.56305   1.38429
C    -1.61156   2.89833   0.68776
C    -0.46282   3.14343   0.04553
C     0.43494   1.95825   0.37491
O    -0.00059   1.58884   1.68359
C    -0.12876   0.75966  -0.46009
F    -0.29079   1.13501  -1.77835
H     4.68546  -0.23561   0.66851
H     4.24660  -0.59276   2.36564
H     4.02233   1.05474   1.70798
H     1.92357  -0.65437   1.73575
H     0.24574  -2.30564   0.62862
H    -1.62078  -0.99818   1.89287
H    -4.00789  -1.15404   1.00418
H    -3.90042  -1.09332  -0.76685
H    -4.24955  -2.65570   0.02245
H    -2.31568   0.57518  -0.38696
H    -2.00606   1.34993   2.27947
H    -2.54614   3.45854   0.65941
H    -0.21363   3.95116  -0.64124
H     1.51698   2.11153   0.32290
