21
Generated by autodE on: 2022-05-29. E = -587.133161 Ha
C    -4.16608   0.50750   0.37262
N    -2.94158  -0.17839   0.01343
C    -1.71486   0.33843   0.21404
O    -1.49867   1.44693   0.73170
C    -0.56289  -0.48535  -0.21600
C    -0.66004  -1.75106  -0.82190
N    -0.75694  -2.80174  -1.32406
N     0.63612   0.07761   0.01814
C     1.87472  -0.30648  -0.20233
C     2.92663   0.62167   0.20876
C     4.34310   0.19007  -0.03700
O     2.63413   1.70057   0.73173
H    -3.91431   1.47280   0.82601
H    -4.74965  -0.08289   1.09625
H    -4.79261   0.68531  -0.51555
H    -3.02008  -1.09418  -0.41898
H     0.54139   1.00992   0.46606
H     2.07319  -1.27093  -0.66987
H     4.49223  -0.01963  -1.10900
H     4.54617  -0.74924   0.50380
H     5.04063   0.96996   0.29400
