13
Generated by autodE on: 2022-05-29. E = -406.788332 Ha
F     0.58930   2.14190  -0.66336
C     0.50001   0.87160  -0.28045
C     1.14744  -0.20746  -0.71560
C     0.46364  -1.34688   0.07812
C    -0.98746  -1.49326  -0.44526
C    -1.61989  -0.39310  -0.02862
C    -0.54385   0.40352   0.75054
O     0.20257  -0.67777   1.33678
H     1.89662  -0.31771  -1.49640
H     1.04279  -2.26635   0.21581
H    -1.34917  -2.31158  -1.06719
H    -2.63977  -0.05688  -0.21122
H    -0.87939   1.14412   1.48478
