34
Generated by autodE on: 2022-05-29. E = -993.912324 Ha. Imaginary frequency = -327.4 cm-1
C     4.38204  -0.10943  -0.17391
N     3.05970  -0.56256  -0.56057
C     2.09929  -0.77391   0.35367
O     2.29188  -0.66304   1.57474
C     0.72989  -1.11121  -0.14209
C     0.58553  -1.47404  -1.50297
N     0.67702  -1.68106  -2.64817
N    -0.12840  -1.38361   0.87873
C    -1.46254  -1.28688   0.92173
C    -2.36783  -1.76374  -0.12730
C    -3.83848  -1.63340   0.17101
O    -1.95660  -2.27535  -1.16546
C    -1.56762   0.90046   0.05780
C    -1.41435   1.65975   1.39334
C    -1.36553   3.16596   1.05978
C    -0.18533   3.35786   0.45969
C     0.47924   1.96312   0.44248
O    -0.01733   1.41033   1.66976
C    -0.34214   1.10839  -0.53710
F    -0.12148   1.19665  -1.85562
H     4.81679  -0.77856   0.58326
H     4.35430   0.90960   0.24632
H     5.02838  -0.10852  -1.05973
H     2.82580  -0.61169  -1.54709
H     0.35144  -1.16319   1.76086
H    -1.87216  -1.19332   1.92867
H    -4.41039  -1.63748  -0.76643
H    -4.14746  -2.50560   0.77296
H    -4.06323  -0.73050   0.75655
H    -2.50561   0.82289  -0.48896
H    -2.05351   1.34805   2.22545
H    -2.17455   3.87322   1.24061
H     0.23581   4.26031   0.01815
H     1.57023   1.92124   0.36850
