17
Generated by autodE on: 2022-06-08. E = -493.285564 Ha
N     3.90530   1.22336   0.56829
C     3.33801   0.20596   0.38007
N     2.81263  -0.98091   0.17424
O     1.39191  -0.91594   0.03657
C     0.68970   0.14646   0.09608
C    -0.72964   0.08215  -0.06349
C    -1.41035  -1.13926  -0.28017
C    -2.79003  -1.13521  -0.43086
C    -3.50226   0.07335  -0.36916
C    -2.83514   1.28486  -0.15478
C    -1.45216   1.29483  -0.00110
H     1.19196   1.10764   0.27007
H    -0.84549  -2.07142  -0.32623
H    -3.32276  -2.07330  -0.59825
H    -4.58783   0.06689  -0.49012
H    -3.39673   2.21967  -0.10862
H    -0.91513   2.23107   0.16592
