17
Generated by autodE on: 2022-07-27. E = -493.286668 Ha
N     3.05401  -3.31677   0.20321
C     2.25189  -2.45575   0.14945
N     1.47769  -1.39398   0.05556
O     0.15433  -1.83393   0.30878
C    -0.82873  -1.01912   0.29041
C    -0.86897   0.38717   0.04302
C     0.24729   1.21274  -0.25096
C     0.05492   2.57270  -0.46991
C    -1.22816   3.13003  -0.40306
C    -2.33856   2.32554  -0.11355
C    -2.16434   0.96674   0.10818
H    -1.76496  -1.54495   0.50701
H     1.23818   0.77151  -0.30112
H     0.91340   3.20818  -0.69604
H    -1.36445   4.19975  -0.57787
H    -3.33670   2.76432  -0.06222
H    -3.02246   0.33085   0.33585
