42
Generated by autodE on: 2022-06-08. E = -3900.755562 Ha. Imaginary frequency = -254.4 cm-1
N     2.36465  -2.04979   2.91333
C     1.51070  -1.36615   2.49288
N     0.62922  -0.48827   2.02358
O    -0.63332  -0.93182   2.37897
C    -1.63240  -0.16731   2.04965
C    -1.70995   1.28097   2.00108
C    -0.61144   2.16517   1.90702
C    -0.83400   3.53736   1.85688
C    -2.13732   4.05067   1.88605
C    -3.23086   3.18432   1.98197
C    -3.02192   1.81006   2.03879
C    -1.16382  -0.44890  -0.22013
C     0.07211  -0.44481  -0.27177
C     1.34255  -0.36364  -0.98406
Br    2.32570  -2.09605  -0.79912
C     2.28059   0.74806  -0.45115
F     1.60881   1.91218  -0.40582
F     2.76936   0.51570   0.76864
F     3.33026   0.91960  -1.26570
C     1.06700  -0.09671  -2.48187
C     0.13181  -1.07781  -3.20465
C    -1.34015  -0.66316  -3.37905
C    -2.36593  -1.12648  -2.34517
C    -2.43147  -0.32539  -0.99543
C    -2.63727   1.11560  -1.26914
N    -2.76133   2.24127  -1.51317
C    -3.60780  -0.83362  -0.25479
N    -4.52714  -1.26709   0.30065
H    -2.56812  -0.71466   2.18784
H     0.39787   1.76843   1.86233
H     0.01809   4.21598   1.78061
H    -2.29910   5.12956   1.83092
H    -4.24757   3.58105   2.00780
H    -3.87216   1.12873   2.10779
H     2.04459  -0.08020  -2.98043
H     0.65876   0.92530  -2.54443
H     0.19297  -2.07747  -2.74560
H     0.54645  -1.19578  -4.21619
H    -1.68825  -1.10416  -4.32568
H    -1.41235   0.42819  -3.52093
H    -2.19895  -2.17754  -2.06700
H    -3.37285  -1.05370  -2.78236
