23
Generated by autodE on: 2022-06-18. E = -351.521385 Ha
C     3.75869  -0.40926   0.06741
C     2.57264   0.23631   0.11530
C     2.50035   1.72773   0.32208
C     1.32681  -0.51334  -0.03335
C     0.07746   0.01461   0.00152
C    -1.12719  -0.77561  -0.15013
C    -2.40769  -0.32707  -0.12314
C    -3.55880  -1.27737  -0.29568
C    -2.80045   1.10944   0.07510
H     3.80797  -1.49218  -0.08279
H     4.70559   0.12684   0.17636
H     1.98557   2.22116  -0.51906
H     1.92670   1.97578   1.23059
H     3.50401   2.16553   0.41741
H     1.43334  -1.59435  -0.18452
H    -0.03623   1.09146   0.15287
H    -0.97175  -1.85064  -0.30201
H    -3.22359  -2.31535  -0.43701
H    -4.22971  -1.24321   0.58156
H    -4.17801  -0.98862  -1.16403
H    -3.40453   1.46130  -0.77984
H    -1.94707   1.78942   0.19313
H    -3.44548   1.20925   0.96601
