30
Generated by autodE on: 2022-05-25. E = -1168.546694 Ha
C     3.40535  -1.15123   1.03131
O     2.09781  -1.13034   0.43476
C     1.61926   0.05587   0.08319
O     2.23952   1.09314   0.19480
C     0.19961  -0.00234  -0.47860
C    -0.01031   1.18491  -1.38839
C     0.76038   1.42761  -2.63679
N    -0.93605   1.97995  -0.99978
O    -1.50826   1.50591   0.20409
C    -0.91685   0.28686   0.58904
Cl   -0.28511   0.49088   2.29324
C    -1.83998  -0.94394   0.51209
C    -2.60239  -0.89785  -0.82997
C    -1.50834  -1.25001  -1.88038
C    -0.23460  -1.40100  -1.02503
C    -0.80848  -2.05647   0.25050
H     3.40443  -0.56017   1.95811
H     4.14974  -0.74352   0.33323
H     3.61893  -2.20369   1.24826
H     1.83134   1.53411  -2.40656
H     0.40608   2.33568  -3.14201
H     0.65329   0.56763  -3.31688
H    -2.47899  -1.04445   1.39705
H    -3.40048  -1.65275  -0.81222
H    -3.07213   0.07825  -1.00535
H    -1.72335  -2.20952  -2.37181
H    -1.41347  -0.49381  -2.67067
H     0.58886  -1.92553  -1.52191
H    -1.28459  -3.02569   0.04358
H    -0.07667  -2.17756   1.05820
