30
Generated by autodE on: 2022-05-25. E = -1168.450889 Ha. Imaginary frequency = -439.8 cm-1
C     3.86455  -0.57589   0.05937
O     2.48128  -0.84570  -0.19231
C     1.59102  -0.01392   0.38334
O     1.93277   0.90917   1.10216
C     0.20676  -0.35176   0.00833
C     0.25960   1.29057  -1.51181
C     1.38099   1.24733  -2.45093
N    -0.74011   1.86510  -1.15731
O    -1.65118   1.79531  -0.32118
C    -0.91164  -0.05131   0.79694
Cl   -0.90271   0.78759   2.31673
C    -1.96316  -1.12597   0.54865
C    -2.51577  -1.01417  -0.89828
C    -1.28702  -1.39445  -1.77474
C    -0.18051  -1.65827  -0.72337
C    -1.01102  -2.34426   0.39131
H     4.08659  -0.64931   1.13394
H     4.13516   0.42872  -0.29804
H     4.42669  -1.33716  -0.49426
H     2.32283   1.50973  -1.94484
H     1.20312   1.96221  -3.26875
H     1.48166   0.23690  -2.87337
H    -2.73044  -1.17225   1.32971
H    -2.90606  -0.01349  -1.10962
H    -3.33416  -1.73856  -1.02003
H    -1.47421  -2.31831  -2.34148
H    -1.01287  -0.61511  -2.49670
H     0.68547  -2.20578  -1.10788
H    -1.53069  -3.25855   0.06293
H    -0.42588  -2.55253   1.29887
