49
Generated by autodE on: 2022-06-06. E = -3958.724119 Ha
C    -0.47891   0.32061   4.93731
N    -0.30950   0.98897   3.66053
C     0.14581   0.32612   2.59188
O     0.60956  -0.81415   2.63209
C     0.26007   1.07360   1.23796
Br   -1.12305   2.56516   1.07405
C     1.64660   1.73711   1.23831
C     2.01762   2.72085   0.12499
C     1.83111   2.28346  -1.32676
C     2.60138   1.04073  -1.76788
C     2.13572  -0.29112  -1.19219
F     2.86208  -0.62262  -0.06661
F     2.45866  -1.29001  -2.08992
C     0.66551  -0.42188  -0.87323
C    -0.07753   0.10449   0.13129
C    -1.43261  -0.49694  -0.02848
C    -2.61615  -0.33808   0.89916
C    -3.95148  -0.12275   0.26165
O    -2.44626  -0.43736   2.10061
N    -1.53965  -1.28277  -1.04285
C    -0.23201  -1.32929  -1.68873
C    -0.40493  -0.89790  -3.17812
C    -1.57016  -1.48089  -3.91740
O     0.35556  -0.09435  -3.66873
C     0.27668  -2.79179  -1.65023
O     0.37312  -3.50262  -2.62250
O     0.57293  -3.14702  -0.41119
C     1.06539  -4.48540  -0.21280
H     0.43302  -0.23263   5.20044
H    -1.32052  -0.39169   4.90477
H    -0.67722   1.07222   5.71134
H    -0.78907   1.87022   3.51060
H     1.73582   2.27061   2.19537
H     2.36685   0.91205   1.29083
H     1.45065   3.65236   0.27517
H     3.07770   2.97894   0.28555
H     2.16741   3.11341  -1.96753
H     0.76210   2.15056  -1.55731
H     2.50776   0.93795  -2.85561
H     3.67326   1.12714  -1.52842
H    -4.72859  -0.04356   1.03231
H    -4.17100  -0.95810  -0.42143
H    -3.92420   0.79210  -0.35263
H    -2.45455  -0.86386  -3.68498
H    -1.37756  -1.42683  -4.99717
H    -1.79073  -2.50879  -3.60688
H     1.24088  -4.57948   0.86431
H     2.00258  -4.62491  -0.76946
H     0.31822  -5.21782  -0.54840
