27
Generated by autodE on: 2022-06-06. E = -3292.424860 Ha
C    -0.24987   4.28722  -1.60027
N     0.26617   3.05896  -1.02338
C    -0.53579   2.01690  -0.76931
O    -1.73718   2.00147  -1.03915
C     0.12401   0.78791  -0.11616
Br    0.27356   1.24853   1.85763
C    -0.70382  -0.39236  -0.21192
C    -1.02808  -1.55219  -0.34290
C    -0.72959  -2.95742  -0.63443
F    -1.49471  -3.81669   0.10617
F    -1.04070  -3.22387  -1.94757
C     0.75015  -3.22354  -0.38389
C     1.71969  -2.21161  -1.02448
C     2.09715  -0.94136  -0.21051
C     1.52092   0.41504  -0.66195
H     0.58809   4.96990  -1.78415
H    -0.96718   4.77676  -0.92195
H    -0.76296   4.08569  -2.55257
H     1.24187   3.02245  -0.75038
H     0.89097  -3.25739   0.70747
H     0.93936  -4.23618  -0.77445
H     1.34436  -1.92821  -2.02193
H     2.65148  -2.76509  -1.21078
H     3.18960  -0.83049  -0.27256
H     1.87990  -1.09602   0.85927
H     1.43340   0.43299  -1.76153
H     2.22176   1.21691  -0.38550
