22
Generated by autodE on: 2022-06-06. E = -666.179271 Ha
C     3.25692   1.73517  -0.17588
O     1.95269   1.14665  -0.09590
C     1.88078  -0.18360  -0.27978
O     2.85731  -0.87846  -0.50596
C     0.50427  -0.67090  -0.17259
N    -0.45514   0.20691   0.07646
C    -1.41661   0.83756   0.28884
C    -2.59941   1.61547   0.59216
C    -3.87124   0.82063   0.60995
O    -2.50464   2.81550   0.79399
C     0.03760  -2.06137  -0.30673
C     1.04290  -3.14086  -0.59882
O    -1.16090  -2.31468  -0.17752
H     3.69564   1.57191  -1.17111
H     3.92208   1.30927   0.58944
H     3.11447   2.80738   0.00237
H    -4.44161   1.06890  -0.30120
H    -3.68036  -0.26140   0.62689
H    -4.46893   1.12410   1.48243
H     1.80298  -3.18546   0.19548
H     0.51559  -4.10086  -0.67161
H     1.57796  -2.92904  -1.53640
