49
Generated by autodE on: 2022-06-06. E = -3958.605708 Ha. Imaginary frequency = -284.4 cm-1
C    -0.31663   0.04998   4.88029
N    -0.17427   0.84166   3.67160
C     0.22149   0.28548   2.52254
O     0.57900  -0.88895   2.42079
C     0.33934   1.20342   1.27856
Br   -1.22695   2.47938   1.18826
C     1.65960   2.00025   1.37157
C     1.97104   3.07144   0.31865
C     1.98159   2.72191  -1.17968
C     2.79942   1.48221  -1.59315
C     1.92516   0.29945  -1.98518
F     1.31777   0.55955  -3.19735
F     2.70801  -0.80855  -2.20063
C     0.89028   0.03033  -0.97750
C     0.32585   0.39839   0.05643
C    -1.59097  -0.91561   0.17534
C    -2.69542  -0.66186   1.13559
C    -3.92751  -0.08881   0.50609
O    -2.55345  -0.91689   2.31340
N    -1.28998  -1.67838  -0.69377
C    -0.45906  -2.06578  -1.63811
C    -0.82371  -1.67129  -3.02724
C     0.03400  -2.13766  -4.16728
O    -1.81748  -0.97432  -3.19850
C     0.63751  -2.98504  -1.24291
O     1.38937  -3.54798  -2.01412
O     0.71761  -3.08867   0.08598
C     1.82333  -3.82757   0.61827
H     0.62066  -0.47679   5.11171
H    -1.11628  -0.69944   4.76662
H    -0.56702   0.71762   5.71324
H    -0.52248   1.79449   3.66542
H     2.44553   1.22653   1.37606
H     1.69288   2.48007   2.36115
H     1.27792   3.91585   0.46041
H     2.96929   3.45411   0.58957
H     2.39061   3.60001  -1.70158
H     0.95064   2.62089  -1.55276
H     3.43868   1.69231  -2.46431
H     3.45639   1.14145  -0.77875
H    -4.47126  -0.91602   0.01737
H    -3.67323   0.64306  -0.27383
H    -4.56185   0.36063   1.28166
H     1.09547  -1.93489  -3.98080
H    -0.07063  -3.22891  -4.27767
H    -0.30083  -1.63775  -5.08528
H     1.74133  -3.74134   1.70759
H     2.77164  -3.39105   0.27250
H     1.76986  -4.88208   0.31135
