17
Generated by autodE on: 2022-07-26. E = -621.861787 Ha
C     3.95662   1.49731   0.21976
N     2.60452   1.11018  -0.13127
C     1.79722   0.43584   0.69727
O     2.06066   0.05634   1.84012
C     0.45145   0.12967   0.14254
N    -0.47184  -0.52793   0.79807
C    -1.60912  -0.65563   0.00980
C    -2.78458  -1.30623   0.40086
N    -3.77520  -1.84400   0.70545
C    -1.34090  -0.01592  -1.23010
O    -1.93344   0.18397  -2.26378
O     0.02292   0.46871  -1.06108
H     4.68158   1.04012  -0.47074
H     4.07011   2.59093   0.17236
H     4.17056   1.15860   1.23969
H     2.25112   1.35731  -1.05237
H    -0.34024  -0.88116   1.74812
