45
Generated by autodE on: 2022-10-21. E = -1365.210393 Ha
C    -3.18646   1.74226  -0.06146
O    -2.10484   0.99532  -0.58763
C    -1.30688   0.31222   0.35437
C    -2.05930  -0.79380   1.14049
C    -2.80080  -1.70972   0.14482
C    -1.65778  -2.57568  -0.45319
C    -0.38538  -1.95691   0.16276
C    -0.88894  -1.68275   1.59304
C    -0.17206  -0.51676  -0.38596
Cl   -0.30587  -0.51941  -2.20372
C     1.18078   0.19118   0.00332
C     2.27047  -0.89584   0.14526
C     2.77002  -1.27350   1.50941
O     2.66270  -1.47221  -0.85459
C     1.55842   1.27684  -1.07578
C     2.82590   1.17584  -1.87285
O     0.83802   2.25321  -1.17205
N     0.86861   0.85526   1.26272
C     1.81446   1.86658   1.71595
C    -0.52838   1.31178   1.26345
C    -1.05688   1.51327   2.68038
H    -3.75723   2.12026  -0.92182
H    -3.85776   1.12663   0.56118
H    -2.84655   2.60695   0.53449
H    -2.69602  -0.39798   1.93881
H    -3.33136  -1.13006  -0.62193
H    -3.54230  -2.32617   0.67308
H    -1.64381  -2.58481  -1.54868
H    -1.72881  -3.61862  -0.11147
H     0.49523  -2.59932   0.05764
H    -1.22337  -2.60498   2.09019
H    -0.16437  -1.17102   2.23375
H     1.93136  -1.57191   2.15431
H     3.25732  -0.41915   2.00117
H     3.48384  -2.10121   1.40961
H     3.69098   1.07826  -1.19761
H     2.92946   2.07951  -2.48722
H     2.81123   0.27755  -2.50380
H     1.74875   1.99346   2.80652
H     1.63834   2.85425   1.24671
H     2.84422   1.56697   1.48000
H    -0.59289   2.28283   0.74171
H    -0.50707   2.32650   3.17730
H    -0.95390   0.60934   3.29678
H    -2.11702   1.80193   2.66019
