24
Generated by autodE on: 2022-10-26. E = -518.109820 Ha
C    -2.58503   1.47461   1.57997
C    -1.77048   0.67989   0.63461
N    -0.53504   0.36292   0.84307
C     0.14905   0.79633   2.07035
C     0.25718  -0.20761  -0.22205
C     0.88068  -1.44899   0.12575
C     1.79656  -2.18364  -0.83341
O     0.67143  -1.96613   1.24789
C     0.29002   0.59268  -1.41664
C     1.20296   0.22406  -2.57102
O    -0.41639   1.61779  -1.54384
H    -2.67669   0.94523   2.54432
H    -3.58734   1.64941   1.17177
H    -2.10012   2.44199   1.79323
H    -2.21066   0.30952  -0.29306
H     1.14703   0.35403   2.09624
H     0.22924   1.89393   2.06772
H    -0.41872   0.47889   2.95448
H     2.69611  -1.59564  -1.06776
H     2.10212  -3.12083  -0.34951
H     1.29734  -2.41863  -1.78408
H     1.12990   1.02101  -3.32252
H     0.89527  -0.72467  -3.03486
H     2.25056   0.11785  -2.25766
