21
Generated by autodE on: 2022-10-21. E = -847.063628 Ha
C     2.80776  -0.41357   0.21644
O     1.77988  -0.88837  -0.65285
C     0.55247  -0.34154  -0.58444
C    -0.03121   0.62081   0.16683
Cl    0.58514   1.54972   1.51241
C    -1.52327   0.59614  -0.13682
C    -2.08283  -0.72083   0.48642
C    -1.40471  -1.82003  -0.38427
C    -0.55691  -0.98643  -1.39991
C    -1.48646   0.21956  -1.63107
H     3.71302  -0.97815  -0.04247
H     2.55121  -0.59513   1.27084
H     2.99015   0.66107   0.06349
H    -2.06208   1.50964   0.14458
H    -1.82794  -0.79721   1.55324
H    -3.17929  -0.75605   0.39680
H    -0.77302  -2.50580   0.19848
H    -2.14991  -2.42419  -0.92301
H    -0.20133  -1.54390  -2.27595
H    -2.47122  -0.06618  -2.03202
H    -1.03482   0.99987  -2.26033
