45
Generated by autodE on: 2022-10-21. E = -1365.140551 Ha. Imaginary frequency = -477.6 cm-1
C    -3.28182   1.47882  -0.62710
O    -2.17009   0.67590  -0.99756
C    -1.41054   0.07460  -0.01084
C    -2.08420  -0.74696   1.10514
C    -2.80248  -1.93147   0.39906
C    -1.62368  -2.82978  -0.06773
C    -0.36142  -2.01756   0.37142
C    -0.86048  -1.44507   1.71360
C    -0.36801  -0.77480  -0.48611
Cl   -0.09566  -0.94591  -2.20538
C     1.57601   0.67338   0.17549
C     2.34388  -0.51260   0.57107
C     3.11600  -1.33219  -0.44362
O     2.31072  -0.94715   1.73224
C     1.72978   1.42097  -1.08791
C     2.80725   1.08643  -2.09662
O     1.01131   2.39591  -1.34854
N     0.81229   1.29317   1.17677
C     1.31925   1.42512   2.54830
C    -0.48424   1.65101   0.89850
C    -1.31281   2.19590   2.02361
H    -3.92798   1.54201  -1.51400
H    -3.85982   1.03577   0.19856
H    -2.97488   2.49976  -0.34948
H    -2.71385  -0.17112   1.79235
H    -3.45321  -2.45718   1.11305
H    -3.42744  -1.58248  -0.43485
H    -1.62040  -3.79890   0.45305
H    -1.62637  -3.02505  -1.14838
H     0.56819  -2.59719   0.37895
H    -1.13879  -2.24084   2.41944
H    -0.14901  -0.77107   2.19511
H     3.33047  -2.30110   0.02551
H     4.07371  -0.85604  -0.69779
H     2.55669  -1.49501  -1.37304
H     3.79483   0.95441  -1.63722
H     2.55844   0.16675  -2.64500
H     2.84465   1.91486  -2.81584
H     0.87677   0.70013   3.24612
H     1.09658   2.43892   2.90967
H     2.40290   1.29249   2.54802
H    -0.60512   2.14410  -0.06280
H    -1.32751   1.52848   2.89642
H    -2.34454   2.35971   1.69534
H    -0.91507   3.17173   2.35269
