35
Generated by autodE on: 2022-06-17. E = -878.740755 Ha
C     4.66848   0.17321  -1.86115
N     3.38377   0.09857  -1.20064
C     3.22673  -0.11818   0.11427
O     4.14728  -0.27381   0.92532
C     1.79606  -0.16099   0.58465
N     0.81082  -0.01044  -0.21559
C    -0.44346  -0.03928   0.56936
C    -0.93240   1.41750   0.71164
O    -1.28535   1.92386   1.75544
O    -0.95719   2.04693  -0.46075
C    -1.43662   3.40108  -0.46111
C    -1.56352  -0.79525  -0.13593
C    -2.72948  -1.10617   0.58068
C    -3.78492  -1.77657  -0.04158
C    -3.68792  -2.14298  -1.38810
C    -2.53055  -1.82998  -2.10646
C    -1.47478  -1.15457  -1.48614
C    -0.05132  -0.63000   1.94808
C     1.45394  -0.34981   2.03588
H     5.46012   0.04469  -1.11344
H     4.76776  -0.61606  -2.62310
H     4.80091   1.14851  -2.35514
H     2.53289   0.21547  -1.74421
H    -1.37830   3.74055  -1.50146
H    -0.80573   4.03135   0.18179
H    -2.47630   3.43810  -0.10535
H    -2.81559  -0.81812   1.63067
H    -4.68644  -2.01380   0.52832
H    -4.51217  -2.66934  -1.87511
H    -2.44637  -2.11153  -3.15896
H    -0.57542  -0.90763  -2.04933
H    -0.23559  -1.71268   1.93125
H    -0.63216  -0.18962   2.76544
H     1.68664   0.58093   2.58188
H     2.04033  -1.15430   2.50056
