45
Generated by autodE on: 2022-06-20. E = -960.504554 Ha
C     0.51471   1.29816  -3.04207
C     0.24588   0.31163  -2.17499
C     0.41356  -1.13801  -2.54302
C    -0.25777   0.64630  -0.78724
C    -1.61779  -0.04233  -0.48365
C    -2.59393   0.79795   0.30586
C    -3.93629   0.70060   0.26853
C    -4.79278   1.58294   1.13555
C    -4.69614  -0.27208  -0.59081
C    -1.13961  -1.20239   0.37144
C    -2.01570  -2.29816   0.69288
N    -2.75780  -3.16354   0.91564
N     0.04677  -1.13609   0.84236
C     0.64950   0.12562   0.38548
C     0.63582   1.12844   1.58271
C     0.86830   0.56137   2.95095
O     0.47497   2.31670   1.38473
C     2.13156  -0.02477   0.05598
C     2.81644  -1.22659   0.27872
C     4.17687  -1.33110  -0.02617
C     4.86837  -0.23502  -0.54929
C     4.19198   0.97069  -0.76147
C     2.83322   1.07665  -0.45820
H     0.39536   2.34917  -2.76279
H     0.86542   1.08452  -4.05640
H     1.14939  -1.63298  -1.88960
H    -0.52980  -1.69888  -2.43440
H     0.75426  -1.24511  -3.58279
H    -0.35010   1.73345  -0.70059
H    -2.09586  -0.41963  -1.39711
H    -2.14346   1.51672   0.99750
H    -4.19159   2.25481   1.76544
H    -5.47154   2.19566   0.51668
H    -5.43856   0.97282   1.79131
H    -4.06481  -0.80852  -1.31143
H    -5.49648   0.24713  -1.14461
H    -5.19305  -1.02644   0.04370
H     1.66260  -0.19824   2.93731
H    -0.05531   0.06074   3.28440
H     1.11251   1.37029   3.65161
H     2.27981  -2.08287   0.68581
H     4.69699  -2.27618   0.14736
H     5.93142  -0.31803  -0.78725
H     4.72413   1.83527  -1.16502
H     2.31498   2.02303  -0.61827
