23
Generated by autodE on: 2022-06-20. E = -351.521383 Ha
C     3.03842   0.63883  -2.15843
C     2.29703   0.59338  -1.02966
C     2.86564   1.02285   0.29864
C     0.91545   0.11947  -1.08228
C     0.07123   0.02257  -0.02453
C    -1.29169  -0.45650  -0.13301
C    -2.19483  -0.58641   0.87155
C    -1.92159  -0.24346   2.30851
C    -3.57896  -1.10368   0.59879
H     2.62305   0.32602  -3.12141
H     4.07439   0.98889  -2.14748
H     3.90764   1.35728   0.19638
H     2.27795   1.84779   0.73456
H     2.83709   0.19691   1.02873
H     0.54937  -0.17943  -2.07196
H     0.42908   0.31807   0.96550
H    -1.61381  -0.74211  -1.14178
H    -2.06988  -1.13186   2.94770
H    -0.90889   0.14041   2.48644
H    -2.64345   0.51259   2.66470
H    -3.73257  -1.34074  -0.46419
H    -3.78098  -2.01333   1.19258
H    -4.34066  -0.36453   0.90588
