22
Generated by autodE on: 2022-06-20. E = -608.905220 Ha
C    -2.73734  -1.59236   0.55322
C    -1.24004  -1.68626   0.43547
O    -0.62730  -2.71419   0.68442
C    -0.51372  -0.44970   0.00754
N    -1.22858   0.61378  -0.14071
C    -1.91289   1.57610  -0.40351
C    -2.40237   2.67889   0.28184
N    -2.87947   3.64708   0.73302
C     0.94828  -0.35761  -0.19137
C     1.59108   0.88718  -0.04039
C     2.96405   1.00662  -0.24946
C     3.72018  -0.11310  -0.61241
C     3.08943  -1.35091  -0.76814
C     1.71484  -1.47924  -0.56123
H    -3.01515  -0.85929   1.32739
H    -3.13945  -2.57761   0.81908
H    -3.18167  -1.24790  -0.39437
H     1.01205   1.76526   0.25396
H     3.44685   1.97820  -0.12227
H     4.79658  -0.02035  -0.77386
H     3.67100  -2.22864  -1.05951
H     1.23418  -2.44579  -0.69406
