45
Generated by autodE on: 2022-06-20. E = -960.428691 Ha. Imaginary frequency = -322.9 cm-1
C     1.11099   1.97766  -2.28073
C     0.24259   0.98534  -1.97034
C     0.27583  -0.33890  -2.68803
C    -0.73005   1.17113  -0.91066
C    -1.78500   0.29939  -0.62990
C    -2.93508   0.75094   0.16196
C    -4.15381   0.16786   0.22967
C    -5.23990   0.75817   1.08444
C    -4.54545  -1.07228  -0.52439
C    -0.94004  -1.07041   0.85289
C    -1.83161  -2.00400   1.40439
N    -2.65009  -2.75791   1.75332
N     0.19252  -0.72641   1.16387
C     1.12584   0.17576   0.86907
C     0.96695   1.51547   1.48305
C    -0.09547   1.67979   2.54335
O     1.69837   2.45545   1.17114
C     2.30345  -0.28661   0.13057
C     2.45459  -1.66812  -0.13576
C     3.52179  -2.13910  -0.89287
C     4.46955  -1.24558  -1.41030
C     4.33559   0.11941  -1.15230
C     3.26745   0.60264  -0.39148
H     1.09110   2.93294  -1.74928
H     1.85708   1.85279  -3.06899
H     0.36588  -1.17101  -1.97244
H    -0.65349  -0.50767  -3.25755
H     1.12233  -0.39185  -3.38669
H    -0.72778   2.14353  -0.41097
H    -1.94705  -0.53442  -1.31537
H    -2.77198   1.66372   0.74486
H    -4.91401   1.67646   1.59466
H    -6.13363   0.99165   0.47883
H    -5.56863   0.03206   1.84939
H    -3.72067  -1.52225  -1.09154
H    -5.36410  -0.84306  -1.22980
H    -4.93704  -1.83400   0.16994
H     0.13683   1.03627   3.40763
H    -1.09179   1.39101   2.18282
H    -0.11393   2.72924   2.86280
H     1.72943  -2.37750   0.26635
H     3.61890  -3.21114  -1.07935
H     5.30755  -1.61579  -2.00538
H     5.06832   0.82603  -1.54933
H     3.17333   1.66513  -0.19483
