51
Generated by autodE on: 2022-06-21. E = -1133.593790 Ha
C     0.54449  -2.44323  -1.75701
C     0.49402  -1.15613  -2.12479
C     0.70713  -0.71453  -3.54541
C     0.23989  -0.02918  -1.13276
C    -0.94161  -0.28059  -0.15075
C    -1.99980   0.78410  -0.26500
C    -3.33232   0.60205  -0.24586
C    -4.00667  -0.73139  -0.07557
C    -4.27028   1.77393  -0.35309
C    -0.27612  -0.39326   1.27282
C    -0.55835  -1.72594   1.95441
C    -0.69700   0.80516   2.15107
C    -1.92993   0.67677   2.99873
O    -0.01980   1.81834   2.15527
O     1.13681  -0.31489   1.05522
C     1.44615   0.26751  -0.19515
C     2.76573  -0.31036  -0.72744
O     3.30586   0.22081  -1.70433
N     3.24421  -1.36821  -0.06887
C     4.38149  -2.13006  -0.54213
C     1.68187   1.78569  -0.02918
O     1.09898   2.65945  -0.63310
O     2.64726   2.00749   0.85801
C     2.92932   3.37820   1.17686
H     0.74996  -3.23056  -2.48827
H     0.38860  -2.75667  -0.72208
H    -0.18780  -0.18886  -3.92209
H     1.54167   0.00280  -3.60289
H     0.92326  -1.56205  -4.21208
H     0.04396   0.88256  -1.70629
H    -1.38074  -1.25792  -0.37130
H    -1.62048   1.80732  -0.35810
H    -4.56456  -0.75229   0.87743
H    -4.75210  -0.89376  -0.87289
H    -3.30921  -1.57927  -0.07479
H    -4.91330   1.83876   0.54260
H    -3.73102   2.72635  -0.46260
H    -4.95124   1.65547  -1.21427
H    -1.63603  -1.87126   2.10455
H    -0.18518  -2.54277   1.32128
H    -0.05471  -1.77899   2.93127
H    -2.26829   1.67420   3.30828
H    -2.73431   0.13964   2.47994
H    -1.67102   0.09338   3.89892
H     2.65360  -1.74211   0.66854
H     4.08448  -2.85280  -1.32127
H     4.83006  -2.67880   0.29601
H     5.13180  -1.45150  -0.96914
H     2.04099   3.84963   1.62124
H     3.75140   3.35774   1.90132
H     3.22888   3.93026   0.27474
