23
Generated by autodE on: 2022-06-21. E = -351.521384 Ha
C    -3.57842  -1.21441  -0.13042
C    -2.55422  -0.33768  -0.22089
C    -2.78828   1.10533  -0.58837
C    -1.18706  -0.78310   0.04088
C    -0.07756  -0.00387  -0.01020
C     1.25726  -0.49756   0.26038
C     2.41218   0.21450   0.23307
C     3.72822  -0.44238   0.54028
C     2.49900   1.67826  -0.09396
H    -4.61091  -0.90831  -0.32057
H    -3.40511  -2.26141   0.13696
H    -3.85551   1.30465  -0.75969
H    -2.43312   1.78086   0.20758
H    -2.23386   1.37761  -1.50185
H    -1.06999  -1.84221   0.30035
H    -0.18560   1.05343  -0.26706
H     1.32585  -1.56245   0.51377
H     3.61515  -1.51098   0.77503
H     4.42376  -0.34360  -0.31253
H     4.22274   0.05286   1.39530
H     3.16377   1.83676  -0.96150
H     1.52856   2.13937  -0.31825
H     2.95650   2.23068   0.74581
