28
Generated by autodE on: 2022-06-21. E = -781.993054 Ha
C    -2.70806  -3.12387  -0.51385
N    -2.10144  -1.97481   0.12681
C    -0.95935  -1.43597  -0.35746
O    -0.29182  -1.97835  -1.25673
C    -0.56236  -0.12963   0.18865
O     0.65099   0.37515  -0.09298
C     1.80646  -0.19411  -0.19479
C     2.08084  -1.58294   0.19176
C     2.88124   0.75374  -0.59427
C     2.49050   2.17446  -0.88715
O     4.03075   0.33966  -0.68622
C    -1.49160   0.85231   0.71658
O    -2.64733   0.59640   1.05066
O    -0.95731   2.07881   0.84950
C    -1.81539   3.09506   1.38199
H    -3.56903  -3.44942   0.08326
H    -3.05440  -2.89758  -1.53747
H    -1.99071  -3.95499  -0.57874
H    -2.66881  -1.37226   0.72085
H     1.47652  -1.83394   1.08249
H     3.15253  -1.69101   0.39793
H     1.77710  -2.29499  -0.59316
H     3.39676   2.77781  -1.02211
H     1.86673   2.58627  -0.07986
H     1.88455   2.20944  -1.80769
H    -2.15618   2.82505   2.39228
H    -1.21086   4.00876   1.41943
H    -2.68973   3.24714   0.73225
