28
Generated by autodE on: 2022-07-27. E = -781.981408 Ha
C     2.87181  -2.57718  -1.79118
N     1.75765  -1.96313  -1.09995
C     1.63344  -0.61893  -1.03110
O     2.48465   0.15005  -1.50598
C     0.42566  -0.11145  -0.35113
O    -0.50251  -1.02650  -0.12834
C    -1.60751  -1.03247   0.58039
C    -2.44907  -2.24534   0.39260
C    -1.80576  -0.07033   1.65747
C    -3.02140  -0.26488   2.52299
O    -0.96594   0.80400   1.90239
C     0.07053   1.31921  -0.33130
O    -1.03355   1.72672  -0.64925
O     1.08821   2.11305  -0.00499
C     0.83562   3.52550  -0.05530
H     2.88830  -2.30329  -2.85894
H     2.78207  -3.66710  -1.70860
H     3.83329  -2.26743  -1.35146
H     1.03294  -2.55058  -0.70330
H    -3.45423  -1.96721   0.03262
H    -1.98526  -2.90978  -0.34831
H    -2.58762  -2.79582   1.33736
H    -3.07259   0.54756   3.25888
H    -3.93566  -0.27148   1.90862
H    -2.97723  -1.23205   3.04948
H     1.77295   4.00960   0.24168
H     0.02951   3.79237   0.64308
H     0.55500   3.83185  -1.07340
