51
Generated by autodE on: 2022-06-21. E = -1133.506523 Ha. Imaginary frequency = -210.6 cm-1
C     0.36962  -2.71568  -1.43962
C     0.53003  -1.51455  -2.02886
C     1.36678  -1.35178  -3.27246
C    -0.08760  -0.27504  -1.52275
C    -1.24915  -0.25739  -0.76255
C    -2.03648   0.94374  -0.60196
C    -3.33313   1.01964  -0.20673
C    -4.19784  -0.16726   0.10797
C    -4.01588   2.35084  -0.08390
C     0.04371  -0.64889   1.59940
C    -0.19199  -2.01724   2.15333
C    -0.71484   0.50840   2.01247
C    -1.97339   0.24947   2.79785
O    -0.35824   1.66758   1.75404
O     1.19582  -0.53464   0.94422
C     1.63529   0.32437   0.04092
C     2.87779  -0.09891  -0.64997
O     3.46830   0.71220  -1.38534
N     3.28908  -1.36288  -0.43424
C     4.35903  -1.97680  -1.19172
C     1.51846   1.82984   0.14417
O     1.00130   2.55598  -0.67682
O     2.24393   2.26779   1.17794
C     2.23652   3.68511   1.40439
H     0.84665  -3.60813  -1.85364
H    -0.23364  -2.84822  -0.53953
H     0.74298  -0.99053  -4.10831
H     2.15567  -0.59780  -3.12710
H     1.83643  -2.29840  -3.57490
H     0.18611   0.64493  -2.04332
H    -1.68791  -1.21139  -0.46678
H    -1.52319   1.87995  -0.83958
H    -4.68441  -0.04096   1.08926
H    -5.01484  -0.24125  -0.63232
H    -3.65551  -1.12123   0.10959
H    -4.36553   2.50996   0.95205
H    -3.35313   3.18422  -0.35857
H    -4.91783   2.39205  -0.72048
H    -1.19754  -2.37993   1.88973
H     0.54652  -2.71737   1.74237
H    -0.11944  -2.03424   3.25410
H    -2.56558   1.17244   2.83835
H    -2.57110  -0.56134   2.36181
H    -1.71046  -0.05378   3.82569
H     2.65456  -1.97082   0.07442
H     3.96766  -2.56013  -2.04207
H     4.94175  -2.64968  -0.54651
H     5.02116  -1.19437  -1.58136
H     1.20921   4.03197   1.58707
H     2.85762   3.85368   2.29167
H     2.65670   4.21668   0.53860
