57
Generated by autodE on: 2022-10-22. E = -1474.482390 Ha
C     0.02154  -4.38907  -1.14260
N    -0.13129  -3.04535  -0.61993
C    -1.03704  -2.19164  -1.11240
O    -1.86516  -2.49738  -1.97472
C    -1.02860  -0.77799  -0.46461
C    -2.04540  -0.82801   0.66545
C    -3.41301  -0.88410   0.36191
C    -4.36019  -0.91302   1.38691
C    -3.95004  -0.89788   2.72429
C    -2.58632  -0.86851   3.02792
C    -1.63599  -0.83903   2.00367
O     0.26122  -0.48928   0.08249
C     1.09000   0.14427  -0.89438
C     1.88902  -0.94624  -1.65484
O     1.93104  -1.07029  -2.85946
O     2.55652  -1.72356  -0.80520
C     3.34057  -2.78623  -1.37236
C     2.11667   1.02530  -0.19867
C     2.24402   1.03805   1.19412
C     3.18867   1.86933   1.80226
C     4.01749   2.68428   1.02493
C     3.90368   2.65784  -0.36883
C     2.96044   1.82770  -0.97857
C     0.13029   0.88157  -1.84716
C    -0.13610   2.40660  -1.61593
C    -0.37328   2.70558  -0.14470
C    -1.59795   2.20040   0.09591
O    -2.35406   2.14031   1.19975
C    -1.72724   2.57669   2.40170
C    -2.07929   1.59467  -1.21545
O    -1.47502   2.48862  -2.16320
C    -1.27169   0.29080  -1.54701
H    -0.90149  -4.97303  -1.00352
H     0.83998  -4.88615  -0.60872
H     0.25436  -4.37255  -2.21928
H     0.55923  -2.67795   0.02733
H    -3.73850  -0.89837  -0.67934
H    -5.42386  -0.94342   1.13947
H    -4.69171  -0.91400   3.52635
H    -2.25665  -0.86222   4.06951
H    -0.57446  -0.80429   2.24530
H     2.70890  -3.44272  -1.98603
H     3.75619  -3.33940  -0.52289
H     4.14887  -2.36974  -1.99020
H     1.59197   0.41166   1.80164
H     3.27498   1.88128   2.89138
H     4.75248   3.33576   1.50330
H     4.55018   3.28684  -0.98509
H     2.87487   1.80920  -2.06761
H     0.43265   0.72012  -2.88584
H     0.54558   3.07567  -2.15070
H     0.33213   3.17000   0.53730
H    -2.44881   2.42054   3.21276
H    -0.81487   1.99070   2.59636
H    -1.46501   3.64606   2.33661
H    -3.16297   1.52315  -1.35137
H    -1.72724  -0.17127  -2.42793
