40
Generated by autodE on: 2022-10-22. E = -1052.259751 Ha
C     2.86186  -3.32699   2.18379
N     1.91924  -2.43356   1.54490
C     2.25601  -1.16198   1.23706
O     3.35435  -0.66858   1.53983
C     1.23047  -0.37187   0.51373
O     0.15991  -1.06960   0.22942
C    -1.05625  -0.85566  -0.26119
C    -1.78464  -2.08308  -0.53414
O    -2.93384  -2.12262  -0.96010
O    -1.06833  -3.19967  -0.27358
C    -1.73939  -4.44554  -0.48414
C    -1.64154   0.47117  -0.41074
C    -2.38812   0.80645  -1.55926
C    -2.90392   2.09194  -1.71574
C    -2.69300   3.06379  -0.73044
C    -1.97627   2.73551   0.42503
C    -1.45532   1.45337   0.58562
C     1.44006   1.00309   0.08965
C     1.04863   1.41967  -1.20143
C     1.20571   2.74653  -1.59392
C     1.74608   3.68228  -0.70552
C     2.15439   3.27710   0.57098
C     2.01241   1.94872   0.96670
H     3.73389  -3.53207   1.53994
H     2.35754  -4.27561   2.40464
H     3.23554  -2.89683   3.12581
H     1.02738  -2.79538   1.22178
H    -2.62702  -4.52632   0.16102
H    -1.01466  -5.22645  -0.22501
H    -2.04671  -4.55027  -1.53518
H    -2.53685   0.05873  -2.33854
H    -3.46477   2.34205  -2.61928
H    -3.08966   4.07309  -0.86183
H    -1.81730   3.48401   1.20439
H    -0.90317   1.20759   1.49277
H     0.63103   0.69639  -1.90162
H     0.89671   3.05362  -2.59534
H     1.85267   4.72649  -1.00813
H     2.57794   4.00528   1.26632
H     2.31467   1.63781   1.96623
