57
Generated by autodE on: 2022-10-22. E = -1474.350007 Ha. Imaginary frequency = -225.6 cm-1
C    -0.39326  -4.99923  -0.81794
N    -0.44717  -3.70282  -0.16794
C    -1.05439  -2.65679  -0.76232
O    -1.81594  -2.77490  -1.72516
C    -0.90022  -1.35564   0.00894
C    -2.00149  -1.05637   0.93511
C    -3.33821  -1.14050   0.49587
C    -4.38341  -0.82693   1.36345
C    -4.11853  -0.45011   2.68478
C    -2.79488  -0.39613   3.13557
C    -1.74405  -0.69179   2.27053
O     0.26586  -0.88001   0.38539
C     1.45439  -0.67689  -0.19263
C     1.90333  -1.52211  -1.28438
O     1.19682  -2.29366  -1.92562
O     3.21157  -1.36077  -1.56654
C     3.71498  -2.08665  -2.69216
C     2.28486   0.28877   0.53837
C     2.08747   0.48450   1.92006
C     2.78379   1.47644   2.61096
C     3.70144   2.29220   1.94192
C     3.91644   2.09842   0.57232
C     3.21973   1.11199  -0.12370
C     0.15223   0.63425  -2.18220
C     0.18784   2.15237  -1.90247
C     0.05769   2.41787  -0.39749
C    -1.21073   2.06075  -0.12843
O    -1.95111   2.08537   0.98612
C    -1.28267   2.56001   2.15156
C    -1.81345   1.56950  -1.45164
O    -1.15871   2.49486  -2.35425
C    -1.11856   0.24793  -1.88138
H    -1.40262  -5.31981  -1.10983
H     0.02366  -5.73367  -0.11771
H     0.23662  -4.96867  -1.72294
H     0.26738  -3.49367   0.52394
H    -3.54880  -1.43209  -0.53293
H    -5.41381  -0.87576   1.00393
H    -4.94043  -0.20689   3.36189
H    -2.57904  -0.11709   4.16941
H    -0.71559  -0.64296   2.62567
H     3.17350  -1.81147  -3.60920
H     3.62330  -3.17071  -2.52949
H     4.77174  -1.80815  -2.78106
H     1.37908  -0.14801   2.45501
H     2.60961   1.60926   3.68148
H     4.24526   3.07083   2.48161
H     4.62394   2.73454   0.03480
H     3.37039   1.00191  -1.19639
H     0.89478   0.10782  -2.77333
H     0.95360   2.72246  -2.43942
H     0.84672   2.76580   0.26129
H    -2.00619   2.52282   2.97434
H    -0.41441   1.92614   2.38939
H    -0.94067   3.59760   1.99929
H    -2.90523   1.60045  -1.52955
H    -1.64723  -0.64194  -2.21242
