36
Generated by autodE on: 2022-05-29. E = -1102.479871 Ha
C    -4.50823  -0.31095   0.78044
C    -3.10771  -0.84641   0.63357
O    -2.68563  -1.71167   1.38073
C    -2.25100  -0.32728  -0.55285
C    -2.83980  -0.96524  -1.81411
N    -2.34792   1.14301  -0.63373
C    -1.35001   1.65799   0.30928
C    -1.95331   1.82528   1.64120
N    -2.43587   1.93421   2.69105
C    -0.17314   0.64294   0.35665
C     0.95096   1.00167  -0.65793
O     0.34917   0.62870  -1.90474
C     0.13972  -0.75151  -1.56432
C     1.51736  -1.18494  -1.06296
C     1.97319  -2.59615  -1.12415
C     2.02878  -0.06897  -0.51236
C     3.25592   0.13633   0.29091
F     3.90228   1.26967  -0.06461
F     2.97448   0.26989   1.61150
F     4.14232  -0.86917   0.18317
C    -0.75709  -0.65092  -0.29292
H    -4.63810   0.66352   0.29887
H    -4.76375  -0.25604   1.84759
H    -5.19612  -1.03278   0.30805
H    -3.91445  -0.75032  -1.89882
H    -2.34415  -0.56243  -2.70974
H    -2.70092  -2.05564  -1.79437
H    -2.03898   1.41523  -1.56691
H    -1.01117   2.65424  -0.01106
H     0.22436   0.50923   1.36860
H     1.27474   2.04831  -0.66074
H    -0.26299  -1.31885  -2.40855
H     2.93862  -2.75477  -0.63037
H     1.21745  -3.24230  -0.64496
H     2.04413  -2.92690  -2.17400
H    -0.66142  -1.54488   0.33079
