17
Generated by autodE on: 2022-07-26. E = -418.329888 Ha
C    -1.06981  -2.44551   0.39894
C    -0.66965  -1.00694   0.17700
O    -1.28672  -0.08332   0.72895
C     0.40978  -0.75813  -0.75688
C     1.01444  -1.86019  -1.57609
N     0.82633   0.49380  -1.01564
C     0.68136   1.71168  -0.46499
C     0.22470   2.03038   0.82205
N    -0.04851   2.45001   1.88070
H    -1.45094  -2.89182  -0.53417
H    -0.20724  -3.05260   0.71604
H    -1.85489  -2.48770   1.16507
H     0.24600  -2.44869  -2.10189
H     1.58065  -2.56336  -0.94235
H     1.71101  -1.45780  -2.32672
H     1.41676   0.54174  -1.85091
H     1.13418   2.52380  -1.03500
