36
Generated by autodE on: 2022-05-29. E = -1102.387012 Ha. Imaginary frequency = -298.4 cm-1
C    -3.87403  -2.01512   0.22701
C    -3.38267  -0.59401   0.36407
O    -3.51740   0.01804   1.42838
C    -2.78659   0.02603  -0.81471
C    -2.99133  -0.57067  -2.17621
N    -2.30172   1.28497  -0.77795
C    -1.69106   1.99376   0.20650
C    -2.08924   2.18669   1.55225
N    -2.23775   2.52153   2.66209
C    -0.06033   0.33018   0.65435
C     0.96433   0.75898  -0.41821
O     0.29197   0.32749  -1.61120
C     0.12396  -1.03757  -1.19046
C     1.58888  -1.42043  -0.84836
C     2.08900  -2.81159  -0.96387
C     2.11368  -0.27607  -0.37919
C     3.40761   0.01483   0.27049
F     4.01016   1.10302  -0.26372
F     3.24329   0.29553   1.58812
F     4.29307  -0.99551   0.19539
C    -0.59356  -0.83679   0.15663
H    -3.10543  -2.67526  -0.20137
H    -4.17320  -2.38562   1.21602
H    -4.74541  -2.04801  -0.44785
H    -4.04794  -0.51772  -2.49022
H    -2.70376  -1.63076  -2.18572
H    -2.38171  -0.05141  -2.92932
H    -1.95969   1.58544  -1.68971
H    -1.11163   2.83634  -0.17834
H     0.01800   0.61784   1.70103
H     1.25166   1.81439  -0.46225
H    -0.36508  -1.65027  -1.95474
H     3.12575  -2.92135  -0.62498
H     2.01028  -3.15989  -2.00761
H     1.44482  -3.47954  -0.36501
H    -1.04008  -1.64753   0.72775
