38
Generated by autodE on: 2022-05-29. E = -1237.017568 Ha
C     4.64037   1.16951  -0.87478
N     3.30027   1.01088  -0.34750
C     2.78712  -0.20619  -0.11397
O     3.37537  -1.26440  -0.33986
N     1.50475  -0.21234   0.48434
N     0.88733   1.03395   0.70276
N    -0.27759   0.95758  -0.10326
C    -1.09680   2.03693  -0.29066
O    -2.23902   1.92552  -0.70761
O    -0.49855   3.18597   0.02536
C    -1.27374   4.37781  -0.17613
C    -0.79004  -0.40271  -0.11408
C    -1.91406  -0.58169   0.90890
O    -2.88889  -1.28010   0.75640
O    -1.67230   0.14368   1.99682
C    -2.65353   0.09582   3.04784
C    -1.08857  -0.92416  -1.55895
C    -1.54283  -2.37353  -1.44584
C    -0.44020  -3.06845  -1.14563
C     0.68469  -2.04770  -1.10563
O     0.25282  -1.06317  -2.05034
C     0.51723  -1.22732   0.21321
F     0.34422  -2.05633   1.30533
H     4.87296   2.24007  -0.92485
H     5.38450   0.67660  -0.22949
H     4.73122   0.74228  -1.88623
H     2.72450   1.81674  -0.12310
H     0.57934   1.05726   1.68246
H    -1.53745   4.49052  -1.23739
H    -0.63286   5.20697   0.14460
H    -2.18917   4.34846   0.43165
H    -2.27164   0.74475   3.84334
H    -3.61856   0.46851   2.67728
H    -2.76703  -0.93475   3.41191
H    -1.68008  -0.23372  -2.16620
H    -2.57118  -2.71662  -1.53172
H    -0.33348  -4.12751  -0.91565
H     1.70193  -2.38775  -1.29984
