19
Generated by autodE on: 2022-05-29. E = -602.175644 Ha
C    -4.62354  -0.07636   0.00574
N    -3.34908  -0.75059   0.15276
C    -2.18960  -0.10159   0.01644
O    -2.07180   1.09876  -0.24477
N    -1.07079  -0.97046   0.21025
N     0.00648  -0.31879   0.07089
N     1.18056  -0.82510   0.18445
C     2.15169   0.16175  -0.02843
O     1.93536   1.33558  -0.28439
O     3.35876  -0.37872   0.09046
C     4.47494   0.50243  -0.10347
H    -4.74373   0.71494   0.76258
H    -4.71139   0.38650  -0.98945
H    -5.42792  -0.81069   0.12875
H    -3.31777  -1.74049   0.37737
H    -0.08256   0.70907  -0.15368
H     5.37095  -0.11312   0.03509
H     4.45362   1.31645   0.63553
H     4.45665   0.92607  -1.11800
