19
Generated by autodE on: 2022-07-26. E = -602.158688 Ha
C     1.79135  -0.72445  -2.75195
N     2.02219  -0.16966  -1.43358
C     1.26094  -0.50420  -0.38257
O     0.32278  -1.30574  -0.42700
N     1.73468   0.06893   0.82193
N     0.89981   0.30049   1.76302
N    -0.38261   0.36700   1.84254
C    -1.11127   0.57030   0.67136
O    -0.78699   1.31474  -0.23678
O    -2.28776  -0.04403   0.76172
C    -3.18582   0.14263  -0.34223
H     2.32908  -0.12003  -3.49251
H     2.14243  -1.76745  -2.82480
H     0.71779  -0.70713  -2.98783
H     2.82577   0.42881  -1.26934
H     1.35902   0.45335   2.67282
H    -4.08242  -0.44016  -0.10208
H    -3.44193   1.20588  -0.45565
H    -2.72759  -0.22777  -1.27051
