38
Generated by autodE on: 2022-05-29. E = -1236.924053 Ha. Imaginary frequency = -330.4 cm-1
C     3.80149   0.64590  -2.07378
N     2.84303   0.83799  -1.00130
C     2.70007  -0.11313  -0.05746
O     3.44510  -1.08767   0.04337
N     1.72506   0.06905   0.96913
N     0.90532   1.08379   0.92294
N     0.21615   1.31590  -0.16676
C    -0.79052   2.29091  -0.05956
O    -1.65563   2.38964  -0.90418
O    -0.67854   3.05403   1.02455
C    -1.69424   4.05348   1.22555
C    -0.68246  -0.75235  -0.22418
C    -2.00499  -0.34312   0.25383
O    -3.01876  -0.44431  -0.41375
O    -1.97246   0.16362   1.49322
C    -3.21322   0.65201   2.02713
C    -0.49717  -1.30088  -1.64613
C    -1.08901  -2.72619  -1.61977
C    -0.23388  -3.44339  -0.88287
C     0.88544  -2.45462  -0.48903
O     0.91173  -1.59342  -1.63248
C     0.26670  -1.47100   0.52149
F     0.07140  -1.85864   1.78050
H     3.85307   1.56348  -2.67306
H     4.79895   0.43273  -1.66532
H     3.51158  -0.19317  -2.72934
H     2.04235   1.43598  -1.18455
H     0.48000   1.33034   1.82877
H    -1.73152   4.73270   0.36283
H    -1.40026   4.59796   2.12961
H    -2.67209   3.57308   1.36796
H    -2.96385   1.12176   2.98497
H    -3.65741   1.38777   1.34275
H    -3.91541  -0.18003   2.17977
H    -0.77914  -0.63234  -2.46480
H    -2.03665  -3.01635  -2.07079
H    -0.28269  -4.48538  -0.57020
H     1.87167  -2.85098  -0.23751
