22
Generated by autodE on: 2022-10-13. E = -571.036601 Ha
C    -3.38912  -0.51890   0.95645
C    -2.72267   0.28116  -0.12902
O    -3.40076   0.92057  -0.93493
C    -1.26859   0.34070  -0.36447
N    -0.24583  -0.10326   0.34611
C    -0.47192  -0.70828   1.67971
C     1.05840  -0.02765  -0.13849
C     1.19827   0.43396  -1.47001
N     1.32176   0.80800  -2.56931
C     2.29180  -0.34689   0.58282
C     3.56831  -0.17453  -0.21567
O     2.36234  -0.72855   1.75581
H    -4.46606  -0.53795   0.74583
H    -3.23042  -0.05076   1.94019
H    -3.00053  -1.54544   1.00768
H    -1.02675   0.83654  -1.30494
H     0.48419  -0.76421   2.19818
H    -1.17280  -0.08336   2.23654
H    -0.87663  -1.71829   1.54218
H     3.55955  -0.80126  -1.12097
H     3.69424   0.87029  -0.54008
H     4.41534  -0.46206   0.41963
