22
Generated by autodE on: 2022-10-06. E = -571.044874 Ha
C    -3.60023   0.98392   0.23984
C    -2.63055  -0.16564   0.14150
O    -3.01140  -1.33370   0.12469
C    -1.22520   0.26301   0.07275
N    -0.16793  -0.52890  -0.01109
C    -0.36377  -1.99972  -0.05023
C     1.13623  -0.05370  -0.06563
C     2.19135  -0.99323  -0.14791
N     3.11204  -1.70918  -0.21649
C     1.50199   1.35914  -0.04293
C     2.97915   1.67540  -0.11131
O     0.67608   2.27795   0.02697
H    -3.48577   1.65134  -0.63016
H    -4.62821   0.60301   0.28727
H    -3.38090   1.58692   1.13645
H    -1.01036   1.32752   0.09521
H    -0.87493  -2.31495   0.86487
H     0.60520  -2.49486  -0.12969
H    -0.98750  -2.25199  -0.91330
H     3.10479   2.76510  -0.08599
H     3.42650   1.27602  -1.03494
H     3.51956   1.22419   0.73545
