10
Generated by autodE on: 2022-10-06. E = -455.044982 Ha
O     2.68145   0.20740  -0.88388
C     1.57055   0.05050  -0.30463
O     1.28394  -0.89531   0.48266
C     0.53212   1.13093  -0.51801
C    -0.77519   1.05338  -0.21599
C    -1.54637  -0.13684   0.32380
O    -1.66191  -1.14205  -0.43069
O    -2.11044   0.00009   1.44659
H     0.92485   2.08606  -0.88700
H    -1.38084   1.96053  -0.35193
