38
Generated by autodE on: 2022-06-17. E = -805.846571 Ha
C     0.09416   2.95607   0.37857
N    -0.70826   1.83715  -0.07230
C    -1.10471   0.84349   0.72225
O    -0.96611   0.78615   1.94606
C    -1.82839  -0.32035  -0.01180
C    -3.20855  -0.36225   0.51185
N    -4.30103  -0.39400   0.90084
C    -1.11134  -1.68186   0.20330
C    -0.33877  -1.89148  -1.11218
C    -0.11630  -3.37646  -1.42710
C     0.98024  -1.15068  -1.17344
C     1.60535  -0.51607  -0.16507
C     2.85904   0.20715  -0.30610
C     3.45362   0.97281   0.64046
C     2.89276   1.21338   2.01508
C     4.75551   1.67029   0.36117
C    -1.33493  -1.25139  -2.09518
O    -1.86753  -0.10167  -1.41428
H     0.04109   3.02042   1.47173
H    -0.28573   3.89282  -0.05398
H     1.14642   2.83099   0.07876
H    -0.83726   1.68020  -1.06912
H    -0.49661  -1.67647   1.10981
H    -1.86376  -2.47386   0.31030
H     0.53340  -3.83629  -0.66728
H     0.37087  -3.49613  -2.40752
H    -1.07254  -3.92271  -1.44701
H     1.44578  -1.14563  -2.16731
H     1.15498  -0.52159   0.82887
H     3.35163   0.12724  -1.28251
H     1.90196   0.77097   2.17716
H     2.81132   2.29798   2.20336
H     3.58017   0.81917   2.78462
H     4.64399   2.76415   0.46849
H     5.52605   1.36839   1.09309
H     5.13323   1.45641  -0.64949
H    -2.15438  -1.95129  -2.33174
H    -0.87479  -0.90160  -3.02921
