23
Generated by autodE on: 2022-06-17. E = -351.521383 Ha
C     3.70369   0.67342   0.35863
C     2.58637  -0.00817   0.02276
C     2.66257  -1.36416  -0.63114
C     1.27086   0.56936   0.29119
C     0.07850  -0.00925   0.00084
C    -1.19951   0.60961   0.28824
C    -2.43084   0.10320   0.02550
C    -2.68153  -1.22509  -0.63032
C    -3.67067   0.87165   0.38633
H     4.70034   0.26520   0.16908
H     3.64484   1.65794   0.83292
H     3.70578  -1.67904  -0.77472
H     2.15047  -2.12823  -0.02294
H     2.16361  -1.35942  -1.61451
H     1.26994   1.55664   0.76870
H     0.07127  -0.99325  -0.47576
H    -1.15081   1.59362   0.77014
H    -3.26644  -1.08813  -1.55710
H    -3.29636  -1.86548   0.02653
H    -1.76549  -1.77433  -0.88298
H    -4.28601   1.06547  -0.51068
H    -3.43885   1.83493   0.86394
H    -4.30860   0.28578   1.07236
