15
Generated by autodE on: 2022-06-17. E = -454.218385 Ha
C     2.27825  -1.08653   1.11753
O     1.07004  -0.80560   0.84219
C     0.55613   0.05274  -0.06825
C     1.41977   0.79605  -0.88239
N     2.18115   1.39587  -1.53872
C    -0.89471   0.16702  -0.16187
O    -1.39178   0.94964  -0.99250
N    -1.62704  -0.60120   0.67853
C    -3.07384  -0.59470   0.70159
H     3.09887  -0.60090   0.57886
H     2.41685  -1.82519   1.90823
H    -1.13733  -1.20960   1.32568
H    -3.45653  -0.28048   1.68603
H    -3.43672   0.10969  -0.05590
H    -3.48132  -1.59352   0.47681
