38
Generated by autodE on: 2022-06-17. E = -805.747598 Ha. Imaginary frequency = -246.8 cm-1
C    -0.55920   3.39372  -0.24532
N    -0.62925   2.02566  -0.71823
C    -1.78344   1.32234  -0.65401
O    -2.85580   1.82451  -0.27384
C    -1.73575  -0.08485  -1.04652
C    -2.92618  -0.81367  -1.22678
N    -3.90240  -1.43888  -1.38327
C    -1.21105  -1.51942   1.09245
C    -0.12544  -2.27689   0.71459
C    -0.27094  -3.77462   0.53059
C     1.25525  -1.76794   0.81620
C     1.62268  -0.47561   0.98056
C     3.00202  -0.03576   1.03087
C     3.44526   1.23838   1.17611
C     2.54636   2.43352   1.32215
C     4.91581   1.54635   1.18565
C    -0.30623  -1.82954  -1.62094
O    -0.56580  -0.56683  -1.53297
H     0.40194   3.82694  -0.54675
H    -1.36916   3.99261  -0.68616
H    -0.64745   3.46125   0.85230
H     0.23639   1.52395  -0.88735
H    -1.09809  -0.52432   1.52287
H    -2.20785  -1.96243   1.12996
H     0.03567  -4.29096   1.45658
H     0.37084  -4.15843  -0.27741
H    -1.31219  -4.05505   0.31646
H     2.04349  -2.52179   0.70544
H     0.84327   0.28705   1.05781
H     3.75553  -0.82645   0.93041
H     1.48731   2.17434   1.43794
H     2.84991   3.03573   2.19596
H     2.64278   3.09702   0.44431
H     5.16946   2.26633   0.38666
H     5.20937   2.02960   2.13497
H     5.53100   0.64480   1.04919
H    -1.12536  -2.54791  -1.69684
H     0.69945  -2.06394  -1.97002
