48
Generated by autodE on: 2022-10-08. E = -1373.141607 Ha
C     2.71122   3.71546  -0.23688
N     2.16930   2.37559  -0.30606
C     1.26752   1.94399   0.58426
O     0.88652   2.63893   1.53746
C     0.72144   0.50805   0.31481
C     1.85237  -0.52483   0.45183
C     1.82240  -1.74498  -0.24129
C     2.80212  -2.71695  -0.02789
C     3.82831  -2.49547   0.89660
C     3.86101  -1.29226   1.60557
C     2.88055  -0.32001   1.38395
C    -0.00795   0.52107  -1.06472
C     0.81992   0.19498  -2.32907
O     0.27739  -0.51875  -3.20349
O     1.97794   0.69999  -2.42480
C    -1.24838  -0.35746  -0.91883
C    -2.43232   0.09565  -1.80862
O    -2.63352   1.33341  -1.90833
O    -3.11809  -0.80911  -2.35108
C    -1.55402  -0.35139   0.62892
C    -1.77975  -1.84733   0.97474
C    -3.05571  -2.53168   0.57041
O    -0.87841  -2.47634   1.50240
C    -2.77840   0.55360   0.93327
C    -2.49089   1.97919   1.31778
O    -3.92223   0.13827   0.85903
N    -0.36438   0.19648   1.23595
C    -0.11453   0.02156   2.64906
H     3.22168   3.89029   0.72384
H     1.92613   4.48477  -0.33899
H     3.43881   3.85016  -1.04794
H     2.28609   1.79312  -1.15978
H     1.03120  -1.94740  -0.96259
H     2.76220  -3.65379  -0.58914
H     4.59490  -3.25605   1.06306
H     4.65189  -1.10627   2.33647
H     2.91925   0.61099   1.95377
H    -0.37675   1.54745  -1.21830
H    -1.00815  -1.38499  -1.21668
H    -2.89097  -3.61798   0.58566
H    -3.84826  -2.27244   1.28777
H    -3.39130  -2.19612  -0.41963
H    -2.09468   2.01166   2.34503
H    -1.72326   2.42083   0.67122
H    -3.42518   2.55439   1.27074
H     0.51487  -0.85423   2.88800
H    -1.07240  -0.11325   3.17357
H     0.36722   0.91720   3.06471
