38
Generated by autodE on: 2022-10-08. E = -918.051970 Ha
C     1.53765   3.18581   0.57755
N     0.86252   1.90838   0.72254
C     1.13220   0.88252  -0.08505
O     2.03074   0.83778  -0.93032
C     0.33440  -0.39153   0.15187
C     0.87425  -1.33744   1.13505
C     2.25645  -1.60529   1.16381
C     2.77443  -2.46911   2.12667
C     1.93041  -3.04118   3.08485
C     0.56216  -2.75015   3.07945
C     0.02886  -1.90750   2.10596
N    -0.72487  -0.59050  -0.57335
C    -1.47974  -1.85017  -0.58054
C    -1.35575   0.53470  -1.23355
C    -2.02791   1.41599  -0.33163
C    -2.84354   2.56273  -0.88059
O    -1.93382   1.27967   0.91509
C    -1.22822   0.65134  -2.65849
C    -0.29345  -0.32340  -3.35654
O    -1.79273   1.53710  -3.32864
H     1.37471   3.78109   1.48444
H     1.15680   3.74763  -0.29134
H     2.61539   3.02485   0.44128
H    -0.03211   1.86592   1.21821
H     2.91007  -1.15038   0.41875
H     3.84326  -2.69203   2.13345
H     2.34216  -3.70962   3.84429
H    -0.09389  -3.17920   3.83955
H    -1.03182  -1.65619   2.12012
H    -2.30706  -1.77418   0.13896
H    -0.83154  -2.69632  -0.32701
H    -1.90356  -1.98460  -1.58195
H    -2.19159   3.27282  -1.41249
H    -3.59178   2.22009  -1.60877
H    -3.33449   3.07292  -0.04056
H     0.72750  -0.22450  -2.95493
H    -0.60149  -1.37038  -3.21043
H    -0.28681  -0.10040  -4.43147
