10
Generated by autodE on: 2022-10-08. E = -455.051701 Ha
O     2.67019   1.26755  -0.30104
C     1.95642   0.25288  -0.06601
O     2.38162  -0.90843   0.18464
C     0.45865   0.47848  -0.09797
C    -0.45870  -0.47853   0.09744
C    -1.95645  -0.25302   0.06534
O    -2.67012  -1.26757   0.30122
O    -2.38164   0.90860  -0.18388
H     0.12741   1.50257  -0.30056
H    -0.12743  -1.50260   0.30004
