20
Generated by autodE on: 2022-05-29. E = -771.828691 Ha
C     1.93949   0.88979  -1.21483
C     0.72829   0.14281  -0.78232
C     0.35980  -0.28039   0.44014
Cl    1.22800  -0.04818   1.93573
C    -1.07213  -0.77895   0.40207
C    -1.95670   0.49296   0.19743
C    -1.55593   0.96204  -1.23222
C    -0.49505  -0.10270  -1.66506
C    -1.08809  -1.37297  -1.02147
H     2.44542   0.38079  -2.05290
H     2.65725   1.00759  -0.39003
H     1.66300   1.89536  -1.57877
H    -1.37261  -1.42666   1.23468
H    -3.02332   0.22736   0.25035
H    -1.75788   1.24755   0.97206
H    -2.41728   0.94145  -1.91697
H    -1.13842   1.97930  -1.24988
H    -0.28951  -0.12872  -2.74360
H    -2.10201  -1.61061  -1.37976
H    -0.43752  -2.25360  -1.12609
