21
Generated by autodE on: 2022-05-29. E = -420.790677 Ha
C     3.76139   0.13373  -0.32733
N     2.46670  -0.48940  -0.49492
C     1.33552   0.07654   0.04661
O     1.43413   0.99290   0.91107
C     0.07686  -0.43057  -0.38596
N    -1.02017   0.13620   0.21198
C    -2.30204  -0.08829   0.06171
C    -3.28623   0.70121   0.85604
C    -2.73785  -1.13080  -0.90749
H     3.86398   1.08484  -0.88432
H     3.94547   0.35168   0.73411
H     4.54372  -0.55311  -0.67840
H     2.33559  -1.06340  -1.32119
H    -0.05423  -1.21743  -1.12339
H    -0.73812   0.85871   0.88694
H    -3.91519   0.03634   1.47429
H    -3.97424   1.25308   0.19110
H    -2.78564   1.42380   1.51784
H    -3.83186  -1.21893  -0.92789
H    -2.30848  -2.11659  -0.64839
H    -2.38361  -0.89531  -1.92856
