41
Generated by autodE on: 2022-05-29. E = -1192.607830 Ha. Imaginary frequency = -340.4 cm-1
C     4.24833  -0.39621  -0.03745
N     3.12994   0.41105   0.40507
C     2.19656   0.86223  -0.48385
O     2.38047   0.79764  -1.72028
C     0.96844   1.36675   0.09205
N     0.04311   1.85723  -0.77213
C    -1.25583   2.04887  -0.48408
C    -2.18308   2.29313  -1.63231
C    -1.59796   2.68315   0.83128
C    -1.56958  -0.27975   0.21293
C    -2.71329  -0.07551   1.16130
C    -1.79781  -1.09045  -1.07020
C    -1.96609  -2.57751  -0.61949
C    -0.54327  -2.94771  -0.10421
C     0.27329  -1.64698  -0.37646
C    -0.38806  -1.16920  -1.68318
C    -0.26033  -0.59651   0.58570
Cl    0.21657  -0.73348   2.29795
H     4.96971  -0.49867   0.78415
H     4.75189   0.08845  -0.88510
H     3.94140  -1.40782  -0.36093
H     2.80540   0.26787   1.35725
H     0.91810   1.65127   1.13866
H     0.27611   1.66956  -1.74904
H    -3.17452   1.86894  -1.40914
H    -1.80842   1.83237  -2.55846
H    -2.33103   3.37422  -1.81476
H    -1.29653   3.74792   0.80368
H    -1.09147   2.21695   1.68572
H    -2.67942   2.65388   1.01015
H    -3.53254   0.50207   0.70505
H    -2.40248   0.43071   2.08351
H    -3.13763  -1.05109   1.46244
H    -2.60540  -0.72281  -1.71882
H    -2.25249  -3.20035  -1.48120
H    -2.74446  -2.69752   0.14705
H    -0.11554  -3.79340  -0.66437
H    -0.52721  -3.20983   0.96360
H     1.36237  -1.78029  -0.38070
H    -0.31636  -1.92187  -2.48342
H     0.00410  -0.22282  -2.06203
