40
Generated by autodE on: 2022-05-31. E = -1379.601819 Ha
C    -4.25011   0.76784  -1.62122
N    -3.66737  -0.56071  -1.56723
C    -2.46968  -0.92449  -1.08623
O    -2.06751  -2.09738  -1.08675
C    -1.53646   0.11637  -0.57224
C    -1.56934   0.94694   0.48049
C    -2.65134   1.20976   1.46746
F    -3.16597   2.44706   1.32688
F    -2.17645   1.12640   2.72696
F    -3.67217   0.34213   1.36467
C    -0.14758   1.48387   0.62920
O     0.28311   1.51245  -0.73353
C    -0.08200   0.16970  -1.05206
C     0.73093  -0.65903  -0.00744
C     0.68094   0.30145   1.22108
C     2.15063   0.66918   1.52233
C     2.65261  -0.06282   2.70372
N     3.07658  -0.63684   3.61884
N     2.87740   0.33792   0.29909
C     2.25323  -0.81450  -0.33429
C     2.72968  -2.09988   0.22756
N     3.12735  -3.07001   0.72409
C     2.48297  -0.86385  -1.86429
O     2.30207  -1.91665  -2.47709
N     2.82547   0.30501  -2.40932
C     2.91260   0.50491  -3.84227
H    -3.47278   1.53075  -1.49740
H    -5.00854   0.90978  -0.83610
H    -4.72837   0.91949  -2.59937
H    -4.24006  -1.33721  -1.89372
H    -0.01944   2.45301   1.12209
H     0.08162  -0.06736  -2.10705
H     0.26656  -1.63533   0.15277
H     0.18863  -0.12643   2.09943
H     2.25671   1.74106   1.75052
H     3.88294   0.23098   0.43175
H     2.85325   1.10203  -1.77740
H     1.92239   0.71202  -4.28183
H     3.32108  -0.39624  -4.31831
H     3.57539   1.35431  -4.05166
