17
Generated by autodE on: 2022-05-31. E = -526.684915 Ha
C     3.81263  -0.43848   0.41121
N     2.58184   0.22274   0.02168
C     1.38445  -0.34329   0.24034
O     1.24248  -1.45620   0.77602
C     0.18154   0.40528  -0.18437
C     0.19060   1.67126  -0.79430
N     0.21475   2.72390  -1.30084
N    -0.97164  -0.24355   0.06842
C    -2.22957   0.08740  -0.16066
C    -3.27110  -0.78695   0.20387
N    -4.15434  -1.49260   0.49572
H     3.84786  -0.60866   1.49892
H     4.65913   0.19681   0.12529
H     3.91586  -1.41395  -0.08933
H     2.63288   1.13668  -0.41734
H    -0.76617  -1.15336   0.52033
H    -2.45857   1.04295  -0.63680
