23
Generated by autodE on: 2022-05-31. E = -852.834005 Ha
C     3.05373  -0.05624  -0.05385
N     2.38698  -0.88547  -1.04107
C     1.10052  -1.26477  -1.07676
O     0.63091  -1.98656  -1.96944
C     0.17272  -0.86162   0.01100
C    -0.31701   0.30988   0.43381
C     0.00317   1.70425   0.04164
F     0.59706   2.38751   1.04148
F     0.82005   1.77640  -1.02431
F    -1.12436   2.37634  -0.27095
C    -1.53843  -0.05312   1.32088
C    -2.61877  -0.60013   0.36154
C    -2.13569  -1.77173  -0.06182
C    -0.77508  -1.91757   0.65206
O    -1.05082  -1.27030   1.90085
H     4.02213  -0.50514   0.21016
H     2.44720   0.01328   0.85672
H     3.23249   0.96165  -0.43277
H     2.93977  -1.20502  -1.83449
H    -1.83911   0.68433   2.07196
H    -3.52609  -0.06911   0.07721
H    -2.53340  -2.47532  -0.79142
H    -0.36397  -2.92411   0.77662
