40
Generated by autodE on: 2022-05-31. E = -1379.517244 Ha. Imaginary frequency = -349.2 cm-1
C    -4.11213   0.89495  -2.11114
N    -3.53344  -0.43610  -2.11584
C    -2.42908  -0.86474  -1.48639
O    -2.01477  -2.03136  -1.56301
C    -1.60818   0.08619  -0.69278
C    -1.81733   0.79885   0.42271
C    -3.04364   0.99882   1.23481
F    -4.05790   0.20016   0.85863
F    -3.49384   2.26818   1.16878
F    -2.79367   0.74306   2.53608
C    -0.41348   1.24346   0.89894
O     0.23003   1.41678  -0.36889
C    -0.06697   0.10830  -0.87234
C     0.50114  -0.77499   0.25528
C     0.29517  -0.03249   1.40317
C     2.39354   0.89480   1.83785
C     2.67557  -0.02406   2.88579
N     2.86785  -0.73456   3.78888
N     2.86541   0.73231   0.58934
C     2.89106  -0.42490  -0.11570
C     3.22502  -1.66646   0.48004
N     3.48797  -2.72295   0.89812
C     2.98190  -0.22929  -1.59066
O     2.89812   0.91827  -2.05104
N     3.10023  -1.32782  -2.35195
C     3.06736  -1.25052  -3.80037
H    -3.37823   1.62771  -1.75608
H    -5.00087   0.94888  -1.46394
H    -4.40782   1.17118  -3.13345
H    -4.03081  -1.16180  -2.62917
H    -0.36457   2.14276   1.52035
H     0.29582  -0.03986  -1.89305
H     0.59219  -1.85581   0.17483
H     0.15901  -0.42751   2.40833
H     2.21274   1.92659   2.14594
H     2.73594   1.53155  -0.04248
H     3.10476  -2.24282  -1.91140
H     3.32142  -2.23441  -4.21223
H     2.06942  -0.95872  -4.16722
H     3.79577  -0.51196  -4.16529
