32
Generated by autodE on: 2022-07-27. E = -785.177586 Ha
C    -1.03874   3.60183  -0.84174
O    -0.93593   2.40536  -0.06337
C    -2.08654   1.86483   0.35749
O    -3.16650   2.42284   0.24465
C    -1.92857   0.61740   1.10631
N    -0.93516  -0.25569   0.99882
C    -0.74268  -1.16912   2.14897
C    -0.13033  -0.43808  -0.10784
C    -0.67427  -0.19637  -1.41798
C     0.13983  -0.62852  -2.62284
O    -1.80116   0.30574  -1.61467
C     1.19260  -1.07237   0.11930
C     2.17015  -0.38153   0.86002
C     3.42233  -0.95122   1.09995
C     3.72315  -2.22111   0.59700
C     2.76077  -2.91873  -0.14044
C     1.50534  -2.35252  -0.37160
H    -1.64865   3.42172  -1.73891
H    -0.01399   3.86397  -1.13016
H    -1.48520   4.41638  -0.25272
H    -2.66803   0.44051   1.88687
H    -0.54731  -2.18421   1.78755
H    -1.64754  -1.15155   2.76584
H     0.10874  -0.82423   2.74843
H    -0.01202  -1.69963  -2.83151
H    -0.20793  -0.05822  -3.49499
H     1.21672  -0.46717  -2.47963
H     1.94152   0.61636   1.24200
H     4.16865  -0.39824   1.67549
H     4.70380  -2.66660   0.78038
H     2.98530  -3.91470  -0.52982
H     0.75216  -2.91185  -0.92953
