52
Generated by autodE on: 2022-06-25. E = -1242.885543 Ha. Imaginary frequency = -269.4 cm-1
C    -0.70677   5.11019  -0.20536
O    -0.56029   3.79955   0.34858
C    -1.46769   2.88482  -0.05092
O    -2.50650   3.18710  -0.61332
C    -1.23365   1.57701   0.64686
C    -2.38538   0.12611  -0.41250
C    -2.92883  -0.79092   0.67511
C    -2.10243  -2.05597   0.79205
C    -2.19626  -2.95063   1.96337
N    -3.11786  -2.61839   2.89856
O    -1.47044  -3.95252   2.10698
C    -1.29938  -2.45006  -0.22991
N    -1.10641  -1.70203  -1.36460
C    -0.11434  -2.12394  -2.34531
C    -1.57942  -0.41143  -1.40738
C     0.90323   0.81623  -0.19760
C     0.73430   1.40673  -1.47992
C     1.64221   0.99033  -2.62422
O    -0.13853   2.28098  -1.76322
C     2.10675  -0.01560   0.08940
C     3.38575   0.56140  -0.01212
C     4.53946  -0.19755   0.19906
C     4.43647  -1.55316   0.52518
C     3.17170  -2.14009   0.63895
C     2.02065  -1.38012   0.42352
N    -0.00178   1.04865   0.84176
C     0.14124   0.29619   2.09513
H    -1.67215   5.55429   0.07896
H     0.11634   5.70843   0.20399
H    -0.63243   5.07092  -1.30238
H    -1.86560   1.52904   1.53772
H    -3.02071   0.95986  -0.71303
H    -2.96136  -0.26069   1.64112
H    -3.98392  -1.04608   0.45004
H    -3.22103  -3.21643   3.71140
H    -3.76433  -1.84841   2.78076
H    -0.75636  -3.39394  -0.18418
H    -0.37908  -1.72278  -3.33252
H     0.88717  -1.75871  -2.07128
H    -0.09526  -3.21967  -2.40015
H    -1.36569   0.13861  -2.32132
H     1.01260   0.82870  -3.51315
H     2.32636   1.82185  -2.86358
H     2.23893   0.09162  -2.43709
H     3.47023   1.62061  -0.26540
H     5.52187   0.27297   0.11188
H     5.33681  -2.14937   0.69187
H     3.07917  -3.19912   0.89172
H     1.04480  -1.85609   0.51449
H    -0.23555  -0.73374   1.97864
H    -0.43837   0.80314   2.87409
H     1.19176   0.26203   2.39920
