46
Generated by autodE on: 2022-10-07. E = -1105.751626 Ha
C    -2.95658   1.55596   2.99653
N    -1.79091   1.24856   2.18864
C    -1.91251   0.80733   0.93268
O    -2.99461   0.61404   0.37801
C    -0.59516   0.52411   0.17581
C    -0.59866  -0.91767  -0.33187
C    -0.32509  -1.31070  -1.64616
C    -0.26057  -2.66891  -1.97857
C    -0.46702  -3.64587  -1.00505
C    -0.73994  -3.26049   0.31317
C    -0.80451  -1.90967   0.64457
O     0.48798   0.67680   1.11872
C     1.69400   0.86198   0.42954
C     2.65801   1.66471   1.27652
C     2.34022  -0.47136  -0.01744
O     2.77299  -0.64068  -1.13694
O     2.38856  -1.33048   0.97466
C     2.94915  -2.62924   0.69058
N     1.28290   1.58055  -0.83236
C    -0.25537   1.71774  -0.81448
N    -0.50236   3.01206  -0.23702
N    -0.70248   1.63136  -2.16704
C    -2.12665   1.40900  -2.41776
H    -2.62602   1.82871   4.00563
H    -3.62683   0.68533   3.06052
H    -3.52674   2.39491   2.56711
H    -0.85783   1.38199   2.56540
H    -0.14845  -0.55843  -2.41184
H    -0.04113  -2.95703  -3.00899
H    -0.41217  -4.70491  -1.26722
H    -0.89915  -4.01607   1.08554
H    -0.99961  -1.61918   1.67858
H     3.60400   1.81295   0.73767
H     2.85374   1.10964   2.20306
H     2.20710   2.63782   1.51830
H     2.40429  -3.09426  -0.14131
H     2.82435  -3.21316   1.60830
H     4.01339  -2.52834   0.43709
H     1.59735   1.03457  -1.65224
H     1.69279   2.52256  -0.89224
H    -0.30736   3.03469   0.76498
H    -1.48225   3.26302  -0.37136
H    -0.41678   2.49674  -2.62778
H    -2.28889   1.50185  -3.50042
H    -2.42232   0.39867  -2.11309
H    -2.79099   2.12822  -1.90752
