13
Generated by autodE on: 2022-10-07. E = -245.298505 Ha
C     1.81873  -0.48125  -0.61061
N     0.47577  -0.80589  -0.16098
C    -0.44697   0.10804   0.14884
N    -0.17046   1.40885   0.03719
N    -1.64988  -0.27984   0.58444
H     1.80116   0.09308  -1.55061
H     2.37060   0.09547   0.14883
H     2.35645  -1.41891  -0.79013
H     0.22026  -1.78255  -0.05459
H     0.72822   1.72744  -0.30494
H    -0.87831   2.10208   0.25454
H    -1.88436  -1.26524   0.63406
H    -2.37539   0.40564   0.76397
