46
Generated by autodE on: 2022-10-07. E = -1105.701142 Ha. Imaginary frequency = -335.2 cm-1
C    -4.10869   1.41341   0.71466
N    -3.03977   0.46330   0.95529
C    -1.76631   0.90606   1.24647
O    -1.61859   2.04826   1.79089
C    -0.66484   0.08923   0.89156
C    -0.66772  -1.25441   0.31508
C    -1.35363  -1.54093  -0.88752
C    -1.34885  -2.82616  -1.43090
C    -0.63743  -3.85837  -0.80961
C     0.05588  -3.59025   0.37635
C     0.03161  -2.31390   0.93763
O     0.51813   0.51413   1.55104
C     1.65803   0.68806   0.94342
C     2.72610   1.26405   1.81444
C     2.14908  -0.34265  -0.10063
O     1.98613  -0.27475  -1.29827
O     2.82793  -1.28596   0.51882
C     3.34254  -2.36427  -0.29131
N     1.28500   2.16601  -0.28116
C     0.08067   2.21303  -1.01371
N    -0.87558   3.03344  -0.57362
N     0.03825   1.59032  -2.17928
C    -1.16029   1.53126  -2.99828
H    -4.01270   1.93289  -0.25833
H    -5.07351   0.88785   0.72665
H    -4.12172   2.17484   1.50480
H    -3.10263  -0.40296   0.43237
H    -1.88091  -0.74155  -1.40905
H    -1.88907  -3.01697  -2.36165
H    -0.62288  -4.86028  -1.24441
H     0.61050  -4.38711   0.87814
H     0.56300  -2.12491   1.87186
H     3.57311   1.62248   1.21356
H     3.09015   0.46682   2.48105
H     2.30677   2.07755   2.42217
H     3.80210  -3.06730   0.41095
H     4.08897  -1.97233  -0.99550
H     2.51951  -2.84285  -0.83799
H     1.34918   2.95926   0.36383
H     2.10557   2.16565  -0.89564
H    -1.02822   3.00242   0.46224
H    -1.76233   2.97727  -1.07232
H     0.79089   0.92031  -2.34394
H    -2.03525   1.22449  -2.40284
H    -1.37120   2.50971  -3.45652
H    -0.99890   0.79576  -3.79355
