26
Generated by autodE on: 2022-05-28. E = -1451.736735 Ha
C     4.36850   1.20571  -0.74114
O     3.15300   0.44063  -0.86669
C     2.61135   0.00070   0.25477
O     3.03944   0.17610   1.37256
C     1.32769  -0.75104   0.01541
O     1.02986  -1.02959  -1.36210
N    -0.15009  -1.76976  -1.17838
O     0.32521  -2.80102  -0.20477
C     1.27359  -2.18904   0.56052
O     1.86328  -2.72547   1.45244
C    -0.99317  -0.87285  -0.33429
C    -1.63445   0.29151  -1.13913
O    -0.53715   1.19600  -1.30651
C    -0.23166   1.36705   0.08020
C    -1.60913   1.71353   0.63076
F    -1.80262   2.41792   1.73096
C    -2.49224   1.04280  -0.11913
Cl   -4.18035   0.83439   0.09632
C     0.03087  -0.09765   0.54732
H     5.15010   0.59541  -0.26805
H     4.65648   1.47591  -1.76267
H     4.18422   2.10723  -0.14056
H    -1.72949  -1.49024   0.18674
H    -2.10478   0.02395  -2.09066
H     0.57258   2.09173   0.24779
H    -0.07624  -0.22640   1.62926
