13
Generated by autodE on: 2022-05-28. E = -866.414064 Ha
F    -2.02245  -0.51751  -0.84249
C    -0.90350  -0.41991  -0.14023
C    -0.11951   0.63504   0.09180
Cl   -0.24506   2.25703  -0.45612
C     1.10802   0.03405   0.81936
C     1.88331  -0.82525  -0.21035
C     1.08905  -1.87145  -0.45185
C    -0.15780  -1.63617   0.43798
O     0.45499  -1.00352   1.57776
H     1.67924   0.72349   1.44987
H     2.84453  -0.55986  -0.64851
H     1.21456  -2.70384  -1.14298
H    -0.77188  -2.50276   0.70608
