26
Generated by autodE on: 2022-05-28. E = -1451.652911 Ha. Imaginary frequency = -287.3 cm-1
C     3.88866   1.53163  -0.67612
O     2.90237   0.49787  -0.84550
C     2.72207  -0.32306   0.18213
O     3.32132  -0.28295   1.23743
C     1.65035  -1.29284  -0.06864
O     1.05692  -1.39287  -1.25962
N     0.03371  -2.25264  -1.18329
O     0.29969  -3.03524  -0.09928
C     1.29649  -2.45428   0.70507
O     1.63666  -2.92733   1.75768
C    -1.28476  -0.81240   0.00283
C    -1.62521   0.29235  -1.01544
O    -0.34982   0.94725  -1.11979
C    -0.18934   1.20182   0.28194
C    -1.51462   1.93168   0.56123
F    -1.65940   2.84314   1.50661
C    -2.42181   1.37189  -0.24603
Cl   -4.11517   1.60835  -0.34691
C    -0.35952  -0.22887   0.84317
H     4.87984   1.08686  -0.50988
H     3.87839   2.10820  -1.60734
H     3.62190   2.17232   0.17612
H    -1.93384  -1.65636   0.22542
H    -2.02569  -0.01049  -1.98778
H     0.72695   1.75294   0.51783
H    -0.11045  -0.51614   1.86347
