48
Generated by autodE on: 2022-06-03. E = -1972.565842 Ha
C     3.22892  -3.08605  -0.27853
N     2.18174  -2.16998   0.12662
C     1.24788  -2.53103   1.01417
O     1.20866  -3.64539   1.54336
C     0.19378  -1.43624   1.35344
C    -0.65941  -1.85673   2.54116
O     0.93741  -0.25103   1.72264
C     0.58810   0.85690   0.91599
C    -0.06990   1.87059   1.77489
N    -0.60055   2.62201   2.48152
C     1.92638   1.33997   0.27806
O     2.42085   0.64451  -0.61377
N     2.52020   2.40640   0.80928
C     3.78550   2.90375   0.29745
C    -0.39525   0.30256  -0.11217
C    -0.61336  -1.00234   0.13917
C    -1.58030  -1.91191  -0.57683
C    -1.08269  -3.34723  -0.77069
C    -2.97019  -1.89742   0.09888
C    -3.54461  -0.50721   0.37071
C    -3.57830   0.43012  -0.85218
C    -2.52966   1.54643  -0.88970
C    -1.06057   1.18661  -1.14549
Cl   -0.87124   0.46861  -2.81884
Cl   -0.18142   2.80149  -1.22803
H     3.85303  -2.59708  -1.03672
H     3.86657  -3.37476   0.57311
H     2.80232  -4.00650  -0.70765
H     2.20329  -1.20745  -0.22285
H    -1.39259  -1.06945   2.76406
H    -1.18694  -2.79590   2.33695
H    -0.01156  -2.00653   3.41622
H     2.03072   2.95780   1.50804
H     3.65918   3.34969  -0.70244
H     4.17026   3.66710   0.98376
H     4.51395   2.08422   0.22152
H    -1.71526  -1.48542  -1.57706
H    -1.81602  -3.90208  -1.37561
H    -0.12005  -3.37335  -1.30176
H    -0.96498  -3.87857   0.18327
H    -2.93787  -2.47243   1.03683
H    -3.64862  -2.44519  -0.57696
H    -4.57091  -0.64186   0.74697
H    -2.98885  -0.02195   1.19042
H    -4.54445   0.95711  -0.86941
H    -3.54417  -0.14818  -1.78988
H    -2.80691   2.27109  -1.66894
H    -2.54397   2.08627   0.07083
