23
Generated by autodE on: 2022-06-03. E = -1270.739135 Ha
C     0.19177  -3.59244  -1.08615
C    -0.85766  -2.62902  -0.51295
C    -0.25689  -1.60958   0.33967
C     0.19186  -0.54624   0.71770
C     0.45266   0.86478   0.56684
Cl   -0.80041   1.81937   1.51260
Cl    2.09332   1.33252   1.22024
C     0.37087   1.24005  -0.92237
C    -0.87970   0.73131  -1.66764
C    -0.83763  -0.68730  -2.30474
C    -1.61635  -1.82958  -1.61497
H     0.93908  -3.05314  -1.68797
H    -0.30034  -4.33784  -1.72920
H     0.72084  -4.12473  -0.28147
H    -1.59647  -3.21753   0.05527
H     1.27780   0.83328  -1.39664
H     0.43504   2.33663  -0.98270
H    -1.04048   1.45029  -2.48529
H    -1.76176   0.83119  -1.01368
H     0.21085  -0.98989  -2.46750
H    -1.26904  -0.59160  -3.31313
H    -2.53930  -1.41795  -1.17497
H    -1.93161  -2.56238  -2.37572
