27
Generated by autodE on: 2022-10-06. E = -964.774968 Ha
C     3.80053  -2.04632   1.80525
N     2.51468  -1.75749   1.20555
C     2.35323  -0.70854   0.37550
O     3.25734   0.06978   0.05531
N     1.07852  -0.55376  -0.16630
N     0.06472  -1.37437   0.16127
C    -1.02951  -0.92269  -0.36424
C    -2.30074  -1.65196  -0.24561
C    -2.34815  -2.87794   0.62630
O    -3.28611  -1.24518  -0.85750
C    -0.84352   0.34110  -1.16729
C    -1.89514   1.43123  -0.81785
O    -2.17231   1.55686   0.40337
O    -2.37365   2.09210  -1.76983
C     0.62617   0.70285  -0.79017
C     0.74810   1.91038   0.18627
O     0.62828   3.03290  -0.36479
O     0.94695   1.67321   1.40014
H     4.58124  -2.16711   1.03789
H     4.12264  -1.24612   2.49216
H     3.72209  -2.98149   2.37324
H     1.70149  -2.31596   1.43978
H    -3.34463  -3.33377   0.56395
H    -2.13131  -2.60246   1.67073
H    -1.58103  -3.60434   0.31871
H    -0.92352   0.11760  -2.24213
H     1.22725   0.92653  -1.67882
