17
Generated by autodE on: 2022-10-06. E = -509.625158 Ha
C    -4.00320   0.85871  -1.01803
N    -3.05028   0.17069  -0.17448
C    -1.71743   0.27750  -0.32777
O    -1.14880   0.98252  -1.16161
N    -1.03113  -0.54159   0.61024
N     0.21129  -0.46345   0.52188
C     1.36810  -0.41906   0.46715
C     2.82037  -0.42173   0.50291
C     3.49140   0.47259  -0.49301
O     3.39431  -1.12897   1.31641
H    -3.48394   1.25150  -1.90062
H    -4.79093   0.16562  -1.34819
H    -4.48257   1.70146  -0.49229
H    -3.38888  -0.44908   0.55425
H     3.16292   0.21172  -1.51213
H     3.19334   1.51817  -0.31017
H     4.58070   0.36818  -0.40360
