10
Generated by autodE on: 2022-10-06. E = -455.046610 Ha
O     2.18021   0.00281   1.80702
C     1.22205  -0.14305   0.99491
O     0.80483  -1.24809   0.54685
C     0.53623   1.12434   0.54242
C    -0.50223   1.19546  -0.30724
C    -1.21590   0.04952  -0.99989
O    -2.22498  -0.42027  -0.41309
O    -0.79252  -0.27248  -2.13998
H     0.94656   2.04748   0.96786
H    -0.90973   2.18708  -0.54909
