16
Generated by autodE on: 2022-06-16. E = -397.221081 Ha
C     3.01515   0.66583  -0.37646
C     1.76576   0.01518   0.08262
N     0.57647   0.39747  -0.28915
C     0.45054   1.53488  -1.21977
C    -0.61736  -0.22890   0.15366
C    -0.53649  -1.30743   1.04528
N    -0.46225  -2.20823   1.79136
C    -1.87424   0.20703  -0.28413
N    -2.94760   0.53693  -0.62317
H     3.11331   0.62028  -1.47523
H     3.03885   1.73417  -0.09880
H     3.88058   0.16576   0.07500
H     1.81068  -0.83368   0.76924
H     0.93413   2.41564  -0.77966
H     0.94490   1.28263  -2.16665
H    -0.60413   1.75210  -1.40401
