28
Generated by autodE on: 2022-06-16. E = -554.502188 Ha. Imaginary frequency = -461.1 cm-1
C    -1.45383   1.68710   1.41990
C    -1.14399   1.33868  -0.01219
C     0.84508   1.84373  -0.14488
C     1.06489   2.31366  -1.56605
C     1.53309   0.73934   0.36882
C     2.50425  -0.08870  -0.40964
C    -0.45746  -0.93446   0.23849
C    -0.55781  -1.13085   1.63667
N    -0.58749  -1.36024   2.78317
C     0.07585  -2.03056  -0.47453
N     0.56559  -2.93020  -1.03912
N    -1.17382   0.04971  -0.45773
C    -1.31959  -0.17181  -1.89993
H    -2.45558   1.30688   1.68211
H    -1.46804   2.78087   1.52136
H    -0.73463   1.28512   2.14153
H    -1.59872   2.02549  -0.73206
H     0.66889   2.64803   0.57710
H     0.30664   3.05242  -1.86506
H     1.03413   1.48700  -2.28967
H     2.05382   2.79499  -1.66576
H     1.56021   0.62338   1.45593
H     3.47823   0.43740  -0.45892
H     2.68684  -1.06489   0.06124
H     2.18487  -0.25815  -1.44782
H    -0.34129  -0.27934  -2.39093
H    -1.84774   0.68109  -2.33870
H    -1.90543  -1.08407  -2.07619
