10
Generated by autodE on: 2022-05-29. E = -453.905094 Ha
C    -3.32521   0.08113   0.31264
C    -1.88146   0.04658   0.17865
C    -0.67563   0.01745   0.06526
C     0.77382  -0.01857  -0.07237
F     1.17320   0.40824  -1.28621
F     1.26194  -1.26420   0.08531
F     1.38490   0.76157   0.83935
H    -3.80551  -0.39701  -0.55511
H    -3.68254   1.12048   0.37822
H    -3.64162  -0.45266   1.22220
