40
Generated by autodE on: 2022-05-29. E = -1121.860277 Ha. Imaginary frequency = -253.6 cm-1
C    -5.51611   1.13564   0.05487
N    -4.18742   0.62585   0.32046
C    -3.14339   0.94670  -0.50164
O    -3.34174   1.53790  -1.58040
N    -1.91177   0.60012  -0.00001
C    -1.23320  -1.07926   1.24886
C    -2.47753  -1.68029   1.72629
C     0.00567  -0.95271   1.16585
C     1.25438  -1.51695   1.65804
F     1.75074  -2.46766   0.83081
F     1.12144  -2.10957   2.87195
F     2.24063  -0.59953   1.81033
C     0.32214   0.93802  -0.21398
C     0.31846   1.88926   0.95241
C     1.61082   0.75479  -0.93815
C     2.49591   1.84436  -1.04005
C     3.72032   1.71073  -1.69764
C     4.09306   0.48193  -2.24838
C     3.22986  -0.61275  -2.13728
C     2.00161  -0.47833  -1.49105
N    -0.84517   0.67453  -0.81794
C    -0.92845  -0.05900  -2.08993
H    -5.58167   2.23412   0.15780
H    -5.83401   0.87650  -0.96542
H    -6.22007   0.67867   0.76291
H    -3.96631   0.36010   1.27169
H    -2.98624  -1.01800   2.44544
H    -3.17653  -1.89867   0.90704
H    -2.24000  -2.62061   2.25066
H     0.32668   2.92489   0.56863
H    -0.57594   1.76357   1.56746
H     1.21575   1.74527   1.56509
H     2.22317   2.81103  -0.61576
H     4.38657   2.57289  -1.77581
H     5.05442   0.37491  -2.75607
H     3.51688  -1.58241  -2.55039
H     1.35476  -1.34766  -1.38997
H    -1.88824   0.18823  -2.55042
H    -0.11797   0.24402  -2.75891
H    -0.87492  -1.14006  -1.89388
