52
Generated by autodE on: 2022-06-23. E = -1280.840264 Ha
C    -2.68403   4.60278  -1.31833
O    -1.80313   3.47688  -1.17053
C    -2.27438   2.44051  -0.48776
O    -3.38510   2.38859   0.00432
C    -1.28984   1.31975  -0.35782
N    -0.02964   1.50511  -0.42362
C     0.68024   0.22750  -0.17825
C     1.22753   0.20376   1.24473
C     1.04057   1.28068   2.12258
C     1.49673   1.21895   3.44337
C     2.14929   0.07618   3.90977
C     2.35485  -0.99874   3.03874
C     1.90285  -0.93454   1.71992
C     1.75984   0.10353  -1.26314
C     1.35540   0.12755  -2.61056
C     2.28876   0.04275  -3.64428
C     3.65313  -0.06089  -3.35287
C     4.06858  -0.06304  -2.02008
C     3.13066   0.02427  -0.98504
C    -0.47013  -0.86212  -0.37769
N    -0.33431  -2.13244   0.26678
C     0.36761  -3.17093  -0.46175
C    -1.05926  -2.42405   1.39832
C    -1.91983  -1.57500   2.00242
C    -2.14635  -0.18519   1.48264
C    -1.76424  -0.07426  -0.01784
C    -2.86793  -0.49678  -0.98587
N    -3.63799  -1.52547  -0.60887
O    -2.98421   0.07636  -2.07696
H    -3.59948   4.30302  -1.84838
H    -2.12922   5.34386  -1.90449
H    -2.94799   5.01316  -0.33316
H     0.52998   2.17828   1.77502
H     1.33656   2.07091   4.10846
H     2.50129   0.02373   4.94276
H     2.87273  -1.89566   3.38688
H     2.08948  -1.77607   1.05535
H     0.29717   0.22763  -2.86183
H     1.94821   0.06195  -4.68227
H     4.38590  -0.13099  -4.16023
H     5.13171  -0.12943  -1.77657
H     3.48301   0.03287   0.04541
H    -0.50622  -1.04641  -1.45948
H     1.33772  -2.80082  -0.82848
H     0.55766  -4.02440   0.20301
H    -0.21000  -3.52800  -1.33500
H    -0.89796  -3.43252   1.78769
H    -2.43956  -1.89929   2.90525
H    -3.19441   0.12544   1.60638
H    -1.54910   0.54831   2.05007
H    -4.35166  -1.87289  -1.24255
H    -3.47150  -2.00410   0.27382
