20
Generated by autodE on: 2022-06-23. E = -457.715332 Ha
C     2.97771   0.97621  -0.53360
N     1.79634   0.15772  -0.31652
C     1.87394  -1.22759  -0.50625
C     0.80765  -2.03550  -0.39468
C    -0.57508  -1.53392  -0.05839
C    -0.56457  -0.02368   0.11396
C    -1.79362   0.71496   0.44441
N    -2.91933  -0.03144   0.57375
O    -1.83249   1.95204   0.60420
C     0.58111   0.70121  -0.02650
H     3.81937   0.61236   0.07617
H     3.28717   0.96407  -1.59230
H     2.76076   2.01219  -0.24468
H     2.87001  -1.60218  -0.74903
H     0.94928  -3.10728  -0.55152
H    -0.94875  -2.03362   0.85884
H    -1.29262  -1.83790  -0.84805
H    -3.79065   0.43788   0.79443
H    -2.92835  -1.03489   0.44371
H     0.55892   1.78496   0.09897
