32
Generated by autodE on: 2022-06-23. E = -823.056200 Ha
C     5.03355  -1.12161  -0.80529
O     3.78684  -1.18563  -0.08991
C     3.18712  -0.02301   0.16746
O     3.62352   1.07387  -0.13533
C     1.97513  -0.19175   0.97573
N     0.82264  -0.13560   0.57325
C    -0.41744  -0.00345   0.26041
C    -0.95779   1.37405   0.19572
C    -0.09810   2.45567  -0.08177
C    -0.58733   3.76130  -0.10349
C    -1.94052   4.01200   0.14906
C    -2.79941   2.94547   0.43256
C    -2.31563   1.63646   0.45812
C    -1.21242  -1.22274  -0.01001
C    -0.87771  -2.43501   0.62277
C    -1.60301  -3.59624   0.35883
C    -2.67133  -3.56952  -0.54470
C    -3.00416  -2.37234  -1.18595
C    -2.28285  -1.20629  -0.92340
H     4.88702  -0.66355  -1.79393
H     5.77248  -0.54053  -0.23520
H     5.36868  -2.15919  -0.91472
H     0.95822   2.26828  -0.28628
H     0.09139   4.58791  -0.32587
H    -2.32339   5.03480   0.12624
H    -3.85483   3.13277   0.64345
H    -2.99193   0.81689   0.70294
H    -0.04559  -2.46213   1.32971
H    -1.33535  -4.52711   0.86414
H    -3.23945  -4.47953  -0.75074
H    -3.82905  -2.34492  -1.90171
H    -2.54151  -0.28390  -1.44460
