47
Generated by autodE on: 2022-06-20. E = -1073.097725 Ha. Imaginary frequency = -352.2 cm-1
C     1.49147  -2.30470   1.86274
C     1.55128  -2.32215   0.51885
C     2.64087  -3.05481  -0.22058
C     0.56030  -1.63622  -0.35798
C     1.48702   0.29132  -0.21810
C     2.86588   0.23352  -0.77214
O     3.02190   0.24805  -1.99223
N     3.83198   0.12824   0.14930
C     5.21555  -0.11228  -0.22174
N     0.74599   1.10709   0.26194
C    -0.51441   1.29824   0.70761
C    -0.76179   1.25411   2.14604
C     0.45289   1.14812   3.03999
O    -1.89911   1.30581   2.62329
C    -1.51704   1.69906  -0.27375
O    -2.70131   1.89313  -0.04663
O    -0.99080   1.80746  -1.51107
C    -1.89137   2.16478  -2.56377
C    -0.77376  -1.43367  -0.00462
C    -1.81210  -1.22162  -0.97265
C    -3.14366  -1.10139  -0.70903
C    -4.13047  -0.91824  -1.82268
C    -3.73533  -1.14668   0.66935
H     2.23894  -2.83052   2.46282
H     0.69412  -1.78730   2.40107
H     2.21349  -3.90957  -0.77353
H     3.11990  -2.41426  -0.97861
H     3.41487  -3.43332   0.46183
H     0.76778  -1.70778  -1.43202
H     3.55504   0.00937   1.12106
H     5.48538   0.50818  -1.08618
H     5.37885  -1.17089  -0.48414
H     5.86274   0.14902   0.62437
H     1.13207   0.34610   2.71711
H     0.12661   0.96587   4.07192
H     1.02268   2.09152   2.99942
H    -2.36414   3.13669  -2.35929
H    -2.67087   1.40044  -2.68814
H    -1.28130   2.22799  -3.47265
H    -1.06079  -1.57467   1.03917
H    -1.49080  -1.15866  -2.01788
H    -4.91348  -1.69640  -1.78330
H    -3.65310  -0.94966  -2.81241
H    -4.65246   0.04889  -1.71449
H    -2.98758  -1.12886   1.47105
H    -4.41105  -0.28897   0.81766
H    -4.35344  -2.05504   0.78671
