22
Generated by autodE on: 2022-05-26. E = -666.179857 Ha
C    -2.17974   2.79628   0.76215
O    -1.25837   1.74389   0.45232
C    -1.75286   0.49231   0.44753
O    -2.92115   0.23760   0.68956
C    -0.72330  -0.49482   0.12018
N     0.50528  -0.05544  -0.11812
C     1.61924   0.21018  -0.34756
C     2.98535   0.62405  -0.62343
C     3.93577  -0.48215  -0.95286
O     3.25166   1.81352  -0.56980
C    -0.88913  -1.95260   0.01973
C    -2.24753  -2.54868   0.26984
O     0.08045  -2.65646  -0.26614
H    -1.60060   3.72604   0.71828
H    -2.60023   2.66005   1.76934
H    -2.99776   2.82510   0.02740
H     3.95919  -1.21354  -0.12857
H     4.93583  -0.06112  -1.12047
H     3.58809  -1.01288  -1.85448
H    -2.17996  -3.63730   0.14495
H    -2.98887  -2.13212  -0.42814
H    -2.59706  -2.30509   1.28426
