52
Generated by autodE on: 2022-06-03. E = -1392.173905 Ha
C     1.49538   0.72365   3.68152
N     1.10494   1.05783   2.32669
C     0.11629   0.40174   1.69891
O    -0.63306  -0.38170   2.29651
C    -0.03727   0.68760   0.20656
C     0.02192   2.27320  -0.01855
C    -0.43618   2.62090  -1.41978
C     0.54371   2.19013  -2.22122
C     1.61232   1.63404  -1.30421
O     1.44503   2.44697  -0.12604
C     1.19330   0.23407  -0.72556
C     2.34122  -0.44053   0.02778
C     3.58724   0.17570   0.21902
C     4.59244  -0.44936   0.96329
C     4.37349  -1.70331   1.53647
C     3.13514  -2.32593   1.35810
C     2.13219  -1.70059   0.61471
N     0.62494  -0.66757  -1.71720
N    -0.77070  -0.36479  -1.79230
C    -1.46908  -1.36061  -2.58279
C    -1.25377  -0.04806  -0.42749
C    -2.47116   0.88832  -0.40324
O    -2.74260   1.56779   0.56498
O    -3.18588   0.86978  -1.51851
C    -4.33836   1.72788  -1.56282
C    -1.64656  -1.36526   0.28219
O    -0.95923  -2.36615   0.24941
O    -2.90274  -1.35370   0.72701
C    -3.38664  -2.56142   1.33317
H     2.25609   1.43834   4.01886
H     0.63267   0.77477   4.36124
H     1.91595  -0.29515   3.73545
H     1.73557   1.61128   1.75181
H    -0.39160   2.85240   0.81008
H    -1.39977   3.05038  -1.68796
H     0.58146   2.17186  -3.30949
H     2.63561   1.67390  -1.68466
H     3.79456   1.16291  -0.19051
H     5.55196   0.05571   1.09661
H     5.15839  -2.18868   2.12109
H     2.94087  -3.30295   1.80691
H     1.16302  -2.18998   0.51923
H     0.72256  -1.62566  -1.36404
H    -1.12779  -1.28748  -3.62606
H    -2.54633  -1.16300  -2.55131
H    -1.28947  -2.39629  -2.23301
H    -4.78141   1.58364  -2.55439
H    -5.05285   1.44481  -0.77714
H    -4.03519   2.77557  -1.42600
H    -2.78146  -2.80420   2.21852
H    -3.34569  -3.39463   0.61761
H    -4.42334  -2.35829   1.62434
