30
Generated by autodE on: 2022-06-03. E = -746.809188 Ha
C    -2.38640   2.82821  -1.06438
N    -1.60120   1.65377  -0.74232
C    -1.96623   0.80635   0.24144
O    -3.03884   0.94012   0.85352
C    -1.07159  -0.33356   0.53919
C     0.24631  -0.58316   0.36508
C     1.37078   0.21403  -0.11932
C     2.39386  -0.41184  -0.86030
C     3.47220   0.32710  -1.34866
C     3.56120   1.69813  -1.08785
C     2.56526   2.32562  -0.33068
C     1.48071   1.59338   0.15116
C     0.39702  -2.08414   0.77223
C    -0.32461  -2.92150  -0.30231
C    -1.62282  -2.66215  -0.11671
C    -1.66111  -1.66737   1.06219
O    -0.55292  -2.14579   1.84574
H    -1.90255   3.36148  -1.89173
H    -3.40806   2.55249  -1.36991
H    -2.46558   3.50945  -0.20128
H    -0.71251   1.51605  -1.21024
H     2.33282  -1.48184  -1.07017
H     4.24927  -0.17153  -1.93258
H     4.40905   2.27477  -1.46468
H     2.63843   3.39241  -0.10680
H     0.72043   2.08513   0.75950
H     1.39839  -2.40061   1.08180
H     0.16859  -3.52150  -1.06618
H    -2.49020  -2.99252  -0.68722
H    -2.58698  -1.58972   1.63999
