52
Generated by autodE on: 2022-06-03. E = -1392.093964 Ha. Imaginary frequency = -241.5 cm-1
C     0.63613   1.22627   4.14429
N     0.71791   1.33480   2.70152
C    -0.03225   0.56974   1.88407
O    -0.84911  -0.24423   2.32665
C     0.23518   0.84976   0.42248
C     0.07232   2.37693   0.05502
C    -0.19931   2.51103  -1.43312
C     0.94720   2.16185  -2.02780
C     1.90092   1.83176  -0.89009
O     1.46066   2.78046   0.11884
C     1.45140   0.50369  -0.20630
C     2.44423  -0.50398   0.18993
C     3.67696  -0.58886  -0.49501
C     4.64308  -1.52980  -0.13829
C     4.40811  -2.42335   0.91130
C     3.18537  -2.36856   1.58802
C     2.21604  -1.43137   1.23078
N     0.49053  -0.92529  -1.88087
N    -0.70383  -0.42144  -1.85438
C    -1.20175   0.09644  -3.13883
C    -1.37797  -0.26985  -0.65270
C    -2.64291   0.55051  -0.61037
O    -2.83121   1.42708   0.20718
O    -3.53938   0.19052  -1.52588
C    -4.76973   0.93407  -1.55716
C    -1.46501  -1.50881   0.17919
O    -0.60623  -2.37208   0.23991
O    -2.67043  -1.63069   0.74159
C    -2.85309  -2.72613   1.64722
H     1.25931   2.00854   4.59489
H    -0.40076   1.35319   4.49091
H     0.99319   0.24319   4.49377
H     1.39977   1.95676   2.27535
H    -0.55490   2.95181   0.74085
H    -1.15956   2.77443  -1.87121
H     1.17007   2.04088  -3.08681
H     2.97170   1.93020  -1.08335
H     3.88087   0.08248  -1.33028
H     5.58578  -1.56692  -0.68980
H     5.16453  -3.15969   1.19227
H     2.97838  -3.06665   2.40294
H     1.26456  -1.44078   1.75751
H     0.61473  -1.47911  -1.02959
H    -0.33235   0.23989  -3.78682
H    -1.74745   1.03464  -3.02773
H    -1.87030  -0.65768  -3.57806
H    -5.35308   0.51372  -2.38388
H    -5.30865   0.81361  -0.60686
H    -4.56610   1.99970  -1.73395
H    -2.14271  -2.64291   2.48216
H    -2.70813  -3.68505   1.13009
H    -3.88259  -2.64485   2.01416
