57
Generated by autodE on: 2022-06-07. E = -1470.728532 Ha
C     3.90348  -0.50663   2.37264
N     2.73366  -0.42575   1.51962
C     1.56769   0.06819   1.97158
O     1.44210   0.50108   3.12775
C     0.40470   0.08023   1.03928
C    -0.68519   0.82591   1.27174
C    -0.94144   1.77869   2.39885
C    -0.10994   3.02311   2.49725
O    -1.88017   1.54783   3.14760
C    -1.74352   0.52414   0.20545
C    -1.83197   1.74405  -0.74600
O    -1.80757   2.89540  -0.30412
N    -1.91293   1.42818  -2.04179
C    -1.75907   2.42468  -3.08315
C    -3.09560   0.21870   0.87096
O    -3.38611  -0.89416   1.25583
O    -3.87127   1.28192   0.97844
C    -5.09942   1.12154   1.71040
N    -1.25812  -0.67672  -0.46726
C     0.21301  -0.75732  -0.24161
C     0.89564  -0.09673  -1.44988
C     0.67425  -0.63918  -2.72727
C     1.18407  -0.01751  -3.86572
C     1.92831   1.16342  -3.74891
C     2.15239   1.71070  -2.48588
C     1.63590   1.08527  -1.34338
C     0.63103  -2.21172  -0.00017
C    -0.02582  -2.93021   1.01361
C     0.34808  -4.23932   1.31830
C     1.39530  -4.85102   0.62069
C     2.06190  -4.14070  -0.37926
C     1.68277  -2.82954  -0.68832
H     4.71383  -0.98980   1.81393
H     4.23533   0.49442   2.69052
H     3.69047  -1.09658   3.27789
H     2.80111  -0.78623   0.57487
H    -0.56219   3.75849   1.81155
H     0.92512   2.85748   2.17459
H    -0.14545   3.42109   3.52051
H    -1.75164   0.44572  -2.25483
H    -0.76180   2.89304  -3.04083
H    -2.51548   3.21621  -2.97949
H    -1.88203   1.94129  -4.05973
H    -4.87697   0.83024   2.74652
H    -5.59211   2.09953   1.68458
H    -5.73075   0.35886   1.23424
H    -1.71244  -1.47624  -0.02695
H     0.08116  -1.54948  -2.82939
H     0.99651  -0.45232  -4.85030
H     2.32396   1.65467  -4.64081
H     2.72330   2.63599  -2.38028
H     1.80404   1.54735  -0.37058
H    -0.83368  -2.46045   1.57942
H    -0.17614  -4.78099   2.10896
H     1.69176  -5.87481   0.86019
H     2.88532  -4.60510  -0.92672
H     2.22294  -2.28880  -1.46521
