21
Generated by autodE on: 2022-06-04. E = -590.895839 Ha
C    -1.94029   0.71499   1.85049
C    -2.17432   0.49698   0.37761
O    -3.28584   0.62205  -0.14230
C    -1.03196   0.12605  -0.44231
C    -1.19452  -0.08634  -1.82855
N    -1.41807  -0.24215  -2.96395
O     0.13595   0.00941   0.20029
C     1.33697  -0.29057  -0.15038
C     1.73459  -0.61542  -1.53072
C     2.30204  -0.28196   0.98380
C     1.78583   0.06081   2.35146
O     3.47361  -0.55423   0.75602
H    -1.53673  -0.19590   2.31903
H    -1.20419   1.51775   2.01179
H    -2.89296   0.98479   2.32344
H     1.52070   0.22936  -2.20700
H     1.17303  -1.48880  -1.90280
H     2.80757  -0.83533  -1.54872
H     1.34145   1.06832   2.35201
H     0.99235  -0.64186   2.64971
H     2.61492   0.01682   3.06813
