21
Generated by autodE on: 2022-07-27. E = -590.885184 Ha
C    -3.05992  -1.47864  -0.80925
C    -1.82357  -1.47936   0.05300
O    -1.60268  -2.35306   0.89263
C    -0.87621  -0.38838  -0.15584
C    -1.13914   0.69592  -1.01111
N    -1.47659   1.58233  -1.69485
O     0.15027  -0.41274   0.71317
C     1.25965   0.21360   0.89231
C     1.96420  -0.09887   2.15837
C     1.85979   1.05813  -0.17523
C     3.04351   1.89718   0.19711
O     1.42206   0.97800  -1.31698
H    -3.68214  -0.59739  -0.58337
H    -2.79611  -1.42455  -1.87723
H    -3.63621  -2.39215  -0.61505
H     1.41679  -0.87379   2.70942
H     2.03492   0.80966   2.78166
H     2.99625  -0.43248   1.96321
H     3.88543   1.25248   0.49857
H     2.80451   2.54027   1.05902
H     3.34102   2.50796  -0.66440
