47
Generated by autodE on: 2022-06-04. E = -1428.927964 Ha. Imaginary frequency = -250.6 cm-1
C     4.49514   0.43675  -0.35734
O     3.29839  -0.13051   0.19407
C     2.15100   0.14880  -0.44521
O     2.10253   0.88723  -1.41056
C     1.01073  -0.56532   0.18058
C     1.27326  -1.72273   1.14529
C     1.67601  -2.92004   0.22329
C     0.34025  -3.27618  -0.48471
C    -0.65565  -2.21314   0.09070
C    -0.14893  -2.13599   1.54240
C    -0.19860  -0.86562  -0.46698
C    -0.51860  -0.53619  -1.90524
F    -0.51197   0.76307  -2.21168
F    -1.73551  -1.01399  -2.24785
F     0.36403  -1.13554  -2.74270
C    -1.83378   0.67075   0.65750
C    -2.21188   1.68480  -0.27321
N    -2.74442   2.40200  -1.02195
C    -2.93108  -0.25841   1.06476
C    -4.05015  -0.47733   0.08586
O    -2.89432  -0.81873   2.15126
O    -0.94988   0.86254   1.65108
C     0.30187   1.24567   1.71154
C     0.97079   0.92727   3.00286
C     0.79436   2.36563   0.85205
C     2.13622   2.95199   1.17813
O     0.08858   2.80246  -0.04199
H     4.43722   1.53415  -0.35848
H     5.31284   0.09957   0.28973
H     4.64883   0.07739  -1.38501
H     1.98525  -1.50946   1.94762
H     2.47746  -2.65004  -0.47780
H     2.03859  -3.75232   0.84374
H     0.40607  -3.24832  -1.57914
H    -0.01693  -4.27443  -0.19382
H    -1.71121  -2.45349  -0.07243
H    -0.67728  -1.41138   2.16488
H    -0.17764  -3.11791   2.03580
H    -4.72423   0.39500   0.10469
H    -3.67902  -0.58444  -0.94191
H    -4.61352  -1.36994   0.38575
H     0.47763   0.08033   3.49326
H     0.92739   1.80275   3.67405
H     2.03119   0.69310   2.84067
H     2.89727   2.18763   1.37805
H     2.03674   3.55229   2.09875
H     2.45189   3.60272   0.35370
