57
Generated by autodE on: 2022-06-23. E = -1100.813490 Ha
C     4.62676  -3.11376   0.11558
C     3.77006  -2.23510  -0.44364
C     4.10050  -1.51062  -1.72255
C     2.48363  -1.95448   0.20404
C     1.54967  -1.10583  -0.26355
C     0.26668  -0.81592   0.44341
C     0.05991   0.68359   0.87459
C     0.50038   0.82300   2.34636
C     0.85580   1.68690   0.02015
C     0.23214   2.49991  -0.93563
C     0.96900   3.39184  -1.72267
C     2.35384   3.48850  -1.56989
C     2.99024   2.69174  -0.61220
C     2.24841   1.80942   0.17688
N    -1.39145   0.89336   0.68890
C    -2.01312   1.92832   1.49167
C    -2.10583  -0.34484   0.40861
C    -3.31092  -0.20858  -0.53420
C    -3.52696   1.04357  -1.32988
O    -4.06870  -1.16334  -0.62843
C    -2.59122  -0.94329   1.76753
C    -3.98002  -0.60648   2.25052
O    -1.83843  -1.57734   2.48819
C    -1.01863  -1.21399  -0.33902
C    -1.27784  -2.72031  -0.28052
C    -0.91396  -0.81452  -1.82391
H     5.59484  -3.33803  -0.34125
H     4.37808  -3.63112   1.04738
H     3.35526  -1.72726  -2.50596
H     4.08745  -0.41805  -1.57158
H     5.09218  -1.79827  -2.09935
H     2.29613  -2.47791   1.14912
H     1.73195  -0.57715  -1.20037
H     0.25410  -1.40097   1.36917
H     0.48246   1.86996   2.68156
H    -0.15308   0.22965   2.99940
H     1.52543   0.44675   2.47134
H    -0.84689   2.42914  -1.06123
H     0.45334   4.01294  -2.45954
H     2.93255   4.18076  -2.18619
H     4.07256   2.75731  -0.47522
H     2.77001   1.19809   0.91320
H    -1.42985   2.85674   1.39864
H    -3.02553   2.14618   1.12638
H    -2.08845   1.69061   2.57036
H    -4.15225   0.81659  -2.20353
H    -2.58494   1.51575  -1.62869
H    -4.06855   1.76606  -0.69608
H    -3.98905  -0.61835   3.34881
H    -4.66987  -1.38269   1.88275
H    -4.34612   0.35719   1.87271
H    -0.46371  -3.24699  -0.80200
H    -1.32202  -3.09805   0.74787
H    -2.22147  -2.97375  -0.78602
H    -0.68631   0.24909  -1.96353
H    -0.11016  -1.39482  -2.29803
H    -1.83834  -1.05135  -2.37071
