34
Generated by autodE on: 2022-06-23. E = -749.277270 Ha
C     3.07109   0.75005  -1.40987
C     2.18310  -0.30790  -0.79681
O     2.16820  -1.45790  -1.29938
C     1.35600   0.00928   0.32200
C     1.22515   1.27065   0.98360
C     0.35619   1.36172   2.23010
O     1.79106   2.31331   0.58792
N     0.61311  -1.11665   0.84919
C     1.39051  -2.10971   1.60473
C    -0.68786  -1.20867   0.76920
C    -1.41057  -2.24549   1.56022
C    -1.45703  -0.31889  -0.12339
C    -2.61981   0.31506   0.34495
C    -3.35853   1.13948  -0.50628
C    -2.96382   1.30569  -1.83633
C    -1.82454   0.64752  -2.31618
C    -1.06580  -0.15265  -1.46523
H     3.65332   0.28718  -2.21916
H     2.46666   1.57603  -1.81443
H     3.74694   1.19547  -0.66543
H     0.72106   2.20056   2.83881
H     0.34830   0.44606   2.83750
H    -0.68490   1.58489   1.94393
H     2.43986  -2.01585   1.31219
H     1.29626  -1.90753   2.68298
H     1.03837  -3.12665   1.39287
H    -1.05945  -2.27498   2.60223
H    -1.21288  -3.23697   1.11690
H    -2.49194  -2.07592   1.53491
H    -2.93309   0.18271   1.38210
H    -4.24905   1.64675  -0.12928
H    -3.54916   1.94122  -2.50479
H    -1.52603   0.75857  -3.36082
H    -0.18715  -0.67786  -1.83980
