12
Generated by autodE on: 2022-06-17. E = -157.300304 Ha
C    -1.95685  -0.16691  -0.02149
C    -0.48843  -0.45381   0.06416
C     0.48844   0.45378  -0.06434
C     1.95685   0.16693   0.02162
H    -2.15398   0.90080  -0.20653
H    -2.43199  -0.74931  -0.83091
H    -2.47618  -0.45585   0.90960
H    -0.20887  -1.50078   0.24776
H     0.20887   1.50073  -0.24803
H     2.43132   0.74760   0.83269
H     2.15404  -0.90113   0.20452
H     2.47677   0.45806  -0.90844
