30
Generated by autodE on: 2022-06-17. E = -671.782233 Ha
C    -3.58381   1.89045  -0.60617
N    -2.50267   0.95538  -0.39231
C    -2.74643  -0.34842  -0.06365
O    -3.92009  -0.75049   0.11532
C    -1.60621  -1.23695   0.05605
C    -1.74841  -2.64074   0.53209
O    -0.42805  -0.60400  -0.01786
C     0.81234  -1.00729  -0.10768
C     1.11872  -2.42012  -0.46038
C     1.78933   0.05483   0.03514
C     3.17128  -0.17353  -0.17190
C     4.09568   0.86068  -0.03483
C     3.67754   2.14997   0.31127
C     2.31435   2.39154   0.52897
C     1.38463   1.36472   0.40408
H    -4.19939   1.62857  -1.48545
H    -4.25531   1.93019   0.26573
H    -3.16270   2.89151  -0.76551
H    -1.56271   1.22386  -0.65560
H    -1.18197  -2.79742   1.46766
H    -2.81268  -2.80563   0.74349
H    -1.42586  -3.41580  -0.18112
H     0.49015  -2.72175  -1.31487
H     2.16839  -2.53131  -0.75102
H     0.92251  -3.12867   0.35889
H     3.52933  -1.16545  -0.44757
H     5.15575   0.65602  -0.20270
H     4.40561   2.95703   0.41855
H     1.97492   3.39122   0.81097
H     0.33172   1.56419   0.60289
