35
Generated by autodE on: 2022-05-29. E = -1118.545082 Ha
C     4.82233   0.55950   0.79826
N     3.69080   0.43242  -0.09298
C     2.45867   0.87708   0.19545
O     2.18572   1.58208   1.17355
C     1.37319   0.50136  -0.84416
C     1.23316   1.70270  -1.78187
N     1.78442  -0.69501  -1.60343
C     1.31849  -1.86303  -0.84712
C     2.36832  -2.37881   0.04873
N     3.18122  -2.80197   0.76076
C     0.06279  -1.43860  -0.03622
C    -1.26082  -1.75372  -0.80091
C    -2.39177  -1.33985   0.12674
C    -2.38498  -0.00300   0.08783
C    -3.16120   0.95422   0.91193
F    -2.35451   1.64935   1.74749
F    -3.79876   1.87164   0.15415
F    -4.08980   0.34770   1.66854
C    -1.25146   0.38659  -0.85657
O    -1.27968  -0.70704  -1.78671
C     0.07370   0.12102  -0.08114
H     4.98008  -0.36975   1.37225
H     4.63932   1.38030   1.50290
H     5.73730   0.77588   0.22811
H     3.74320  -0.20560  -0.88417
H     0.88265   2.58105  -1.22235
H     2.20344   1.94543  -2.23874
H     0.51795   1.48637  -2.58869
H     1.28818  -0.69194  -2.49335
H     1.08498  -2.68142  -1.54394
H     0.06003  -1.86373   0.97348
H    -1.31561  -2.74414  -1.26523
H    -2.98676  -2.00407   0.75243
H    -1.34517   1.35180  -1.36137
H     0.05278   0.60249   0.90078
