19
Generated by autodE on: 2022-07-26. E = -473.725366 Ha
C     2.07945   0.46612   1.62620
N     1.33483   0.32722   0.38946
C     0.18809   1.00467   0.17842
O    -0.17762   1.94025   0.90385
C    -0.59108   0.65786  -1.04234
C    -1.15410   1.79120  -1.83510
N    -0.84917  -0.58343  -1.41706
C    -0.67592  -1.82424  -0.86768
C    -0.32031  -2.05397   0.45887
N    -0.03550  -2.28603   1.57489
H     2.99371  -0.13588   1.55972
H     1.48777   0.11820   2.48913
H     2.35704   1.51620   1.79958
H     1.56658  -0.45230  -0.21733
H    -0.36900   2.51883  -2.09789
H    -1.63008   1.43210  -2.75941
H    -1.91172   2.33348  -1.24395
H    -1.32187  -0.63738  -2.32399
H    -0.96200  -2.65997  -1.50321
