35
Generated by autodE on: 2022-05-29. E = -1118.441483 Ha. Imaginary frequency = -282.2 cm-1
C     4.91903   0.63155   1.10512
N     3.97789   0.49420   0.01128
C     2.72601   0.99103   0.08542
O     2.38451   1.79211   0.96526
C     1.80479   0.61469  -1.03756
C     1.32749   1.76406  -1.87260
N     1.83206  -0.60783  -1.59262
C     1.94762  -1.83104  -1.00289
C     2.68722  -2.09888   0.16198
N     3.25821  -2.39561   1.14043
C    -0.04904  -1.33920   0.46127
C    -1.13981  -1.84177  -0.50930
C    -2.49672  -1.48166   0.13111
C    -2.55944  -0.14959   0.04466
C    -3.55120   0.78555   0.61737
F    -4.07637   1.60765  -0.31809
F    -2.98208   1.58956   1.54645
F    -4.57884   0.15620   1.21214
C    -1.24247   0.28703  -0.63937
O    -1.06359  -0.82712  -1.53172
C    -0.10324   0.02599   0.36912
H     5.90934   0.30077   0.76876
H     4.98377   1.67989   1.42846
H     4.61529   0.01806   1.97033
H     4.20291  -0.16482  -0.72611
H     0.60681   1.43491  -2.63458
H     2.17184   2.26397  -2.37987
H     0.84517   2.51226  -1.22769
H     1.31071  -0.66412  -2.46777
H     1.70620  -2.67933  -1.64340
H     0.36407  -1.93667   1.27069
H    -1.03419  -2.85018  -0.92135
H    -3.18422  -2.17511   0.61362
H    -1.26296   1.24434  -1.16799
H     0.24758   0.76097   1.08850
