23
Generated by autodE on: 2022-06-24. E = -351.521382 Ha
C    -0.61070   3.70488  -0.44880
C    -0.11454   2.47938  -0.72757
C     0.77225   2.24725  -1.92421
C    -0.43522   1.34740   0.13964
C    -0.00031   0.07333  -0.02919
C    -0.34838  -1.01347   0.86328
C     0.04451  -2.30885   0.76677
C    -0.40259  -3.32492   1.77952
C     0.93385  -2.84894  -0.31702
H    -0.38652   4.56897  -1.08045
H    -1.25426   3.87071   0.42071
H     0.33318   1.49941  -2.60533
H     0.93109   3.17708  -2.48833
H     1.75656   1.85465  -1.61923
H    -1.08428   1.56902   0.99540
H     0.64750  -0.15489  -0.87983
H    -0.99976  -0.74506   1.70387
H    -0.95077  -4.15022   1.29046
H     0.46720  -3.79024   2.27737
H    -1.05133  -2.88548   2.55142
H     1.84111  -3.29945   0.12312
H     0.42208  -3.66293  -0.86029
H     1.24821  -2.09438  -1.04941
