30
Generated by autodE on: 2022-07-27. E = -838.107086 Ha
C    -2.45421   3.49239  -2.81872
N    -2.28468   2.75056  -1.58557
C    -1.28882   1.85004  -1.44132
O    -0.47891   1.59647  -2.34452
C    -1.20834   1.16951  -0.13045
C    -2.22759   1.24221   0.83112
N    -3.14674   1.33020   1.55017
O    -0.18245   0.33026  -0.06070
C     0.34198  -0.52102   0.76929
C    -0.07445  -0.49898   2.20167
C    -0.01768  -1.74772   3.03422
O    -0.47013   0.56532   2.66329
C     1.39465  -1.34265   0.18823
C     1.48618  -1.45656  -1.21972
C     2.48532  -2.22957  -1.80119
C     3.41548  -2.90258  -0.99877
C     3.34578  -2.78362   0.39285
C     2.34965  -2.01053   0.98605
H    -3.37841   4.07916  -2.75453
H    -1.61114   4.17971  -3.00068
H    -2.52541   2.81066  -3.67989
H    -2.88360   2.97135  -0.79650
H    -0.90250  -1.74826   3.68765
H     0.86968  -1.72114   3.68797
H     0.00989  -2.66383   2.43170
H     0.76614  -0.92940  -1.84615
H     2.53795  -2.31381  -2.88883
H     4.19543  -3.51359  -1.45845
H     4.07921  -3.28982   1.02401
H     2.33827  -1.90637   2.06936
