30
Generated by autodE on: 2022-06-24. E = -838.112787 Ha
C     5.14879   0.58712  -0.04484
N     3.74162   0.77838   0.24474
C     2.80777  -0.06441  -0.24279
O     3.08585  -1.03260  -0.96317
C     1.40485   0.23204   0.12028
C     1.01740   1.26541   0.98791
N     0.77495   2.13619   1.73048
O     0.55580  -0.66023  -0.36925
C    -0.72666  -0.85724  -0.37070
C    -1.08821  -2.17746  -0.94816
C     0.03866  -3.08270  -1.36517
O    -2.26791  -2.49262  -1.05084
C    -1.71232   0.11738   0.08110
C    -2.80246  -0.29359   0.87618
C    -3.76655   0.63155   1.26973
C    -3.67141   1.96645   0.85959
C    -2.60508   2.37733   0.05305
C    -1.62567   1.46406  -0.33116
H     5.51293  -0.37640   0.34679
H     5.33811   0.60366  -1.12986
H     5.71878   1.39701   0.42568
H     3.46534   1.55496   0.83685
H    -0.37799  -3.96170  -1.87226
H     0.75044  -2.55899  -2.01972
H     0.60575  -3.40110  -0.47516
H    -2.87521  -1.33253   1.19675
H    -4.59795   0.31056   1.90092
H    -4.43224   2.68736   1.16717
H    -2.53536   3.41520  -0.27902
H    -0.80799   1.78747  -0.97717
