53
Generated by autodE on: 2022-06-24. E = -1189.637962 Ha. Imaginary frequency = -263.5 cm-1
C    -3.91976   1.46790  -0.92379
N    -3.85443   0.78485   0.35390
C    -3.03321  -0.26164   0.54000
O    -2.31207  -0.71796  -0.35405
C    -2.98122  -0.84199   1.93027
C    -4.04213  -0.50643   2.82407
N    -4.97187  -0.03091   3.34697
C    -1.34660   0.62719   2.81087
C    -0.35955  -0.11191   3.43776
C    -0.36978  -0.24073   4.94037
C     0.79503  -0.63190   2.73340
C     0.90782  -0.80133   1.38594
C     2.06868  -1.38260   0.76190
C     2.20192  -1.71676  -0.54905
C     3.46016  -2.36407  -1.04953
C     1.13585  -1.51630  -1.58593
C    -1.65718  -2.72186   2.82720
C    -2.14102  -2.77578   4.19358
C    -1.53224  -3.72071   5.19597
O    -3.08281  -2.04520   4.53582
C    -0.63956  -3.55308   2.18932
C    -0.73871  -3.82637   0.80575
C     0.25796  -4.53730   0.14371
C     1.39224  -4.97477   0.83574
C     1.51234  -4.69686   2.20107
C     0.51115  -3.99842   2.87471
O    -2.28316  -1.95602   1.93717
H    -4.25568   0.78813  -1.72257
H    -4.63014   2.29907  -0.84342
H    -2.93367   1.86671  -1.20977
H    -4.43492   1.11361   1.11882
H    -1.18867   1.00064   1.79945
H    -2.09196   1.14999   3.41215
H     0.12832  -1.16091   5.27705
H     0.17378   0.60735   5.39347
H    -1.39475  -0.22709   5.33663
H     1.62239  -0.97745   3.36293
H     0.06145  -0.52919   0.75063
H     2.90724  -1.60932   1.43024
H     4.21062  -2.48445  -0.25477
H     3.23863  -3.35948  -1.47422
H     3.90719  -1.77383  -1.86953
H     1.49891  -0.84039  -2.38067
H     0.19637  -1.11210  -1.19017
H     0.91059  -2.47684  -2.08086
H    -2.24105  -3.82966   6.02754
H    -0.59798  -3.29648   5.59833
H    -1.30204  -4.70456   4.76652
H    -1.60671  -3.46917   0.25238
H     0.15444  -4.74232  -0.92397
H     2.18070  -5.52075   0.31317
H     2.40407  -5.01214   2.74756
H     0.65856  -3.75353   3.92387
