23
Generated by autodE on: 2022-07-27. E = -605.335481 Ha
C     2.66828   2.47327   0.45245
N     1.78215   1.75771  -0.44760
C     0.55909   1.37300  -0.06022
O     0.06364   1.65469   1.03417
C    -0.25419   0.61802  -1.08552
C    -0.45380   1.21730  -2.43750
N    -0.86334  -0.49334  -0.74122
C    -1.86012  -1.07215  -1.66470
C    -0.56803  -1.24259   0.41922
C    -1.53306  -2.09763   0.97489
N    -2.31014  -2.82590   1.46321
C     0.69256  -1.16713   1.02954
N     1.74656  -1.12955   1.53850
H     2.91288   1.85662   1.33206
H     2.19907   3.40419   0.80425
H     3.59320   2.71868  -0.08244
H     2.13043   1.45526  -1.35291
H    -1.48107   1.60796  -2.54079
H     0.23816   2.05288  -2.59130
H    -0.30314   0.47385  -3.23573
H    -2.56624  -0.29703  -1.98105
H    -1.34120  -1.48324  -2.54130
H    -2.40039  -1.87494  -1.15621
