19
Generated by autodE on: 2022-06-01. E = -995.131161 Ha
C    -3.45364   1.62876  -0.36619
O    -2.04225   1.48267  -0.16610
C    -1.58940   0.23182   0.03273
O    -2.31465  -0.74683   0.04784
C    -0.14081   0.21993   0.21958
C     0.70987  -0.82331   0.26393
Cl    0.42688  -2.50084   0.14491
C     2.12983  -0.21251   0.32304
C     2.38396   0.42817  -1.06074
C     1.55683   1.47611  -1.10461
C     0.80415   1.44966   0.24457
O     1.84204   0.94969   1.11169
H    -4.00731   1.26903   0.51352
H    -3.77859   1.06638  -1.25382
H    -3.62983   2.70082  -0.51191
H     2.91237  -0.84426   0.75512
H     3.06053   0.03251  -1.81681
H     1.36933   2.18498  -1.91009
H     0.37016   2.38510   0.60878
