42
Generated by autodE on: 2022-06-01. E = -1600.454547 Ha. Imaginary frequency = -270.1 cm-1
C     4.28325   0.99607   0.11983
N     3.21638   0.33912  -0.61008
C     2.03993   0.95512  -0.82690
O     1.87495   2.16152  -0.64090
C     0.98592   0.10627  -1.51007
C     0.59267   0.67913  -2.83347
N     0.89014  -1.22058  -1.28421
C     0.50189  -2.13728  -2.37671
C     0.81309  -1.74983   0.00900
C     0.41403  -3.10559   0.16537
N     0.02678  -4.18946   0.34946
C     1.58254  -1.24160   1.09612
N     2.16278  -0.88280   2.03945
C    -1.13512  -0.59114   0.65797
Cl   -1.12424  -0.85525   2.37405
C    -2.27883  -1.27852  -0.12380
C    -3.54639  -0.47851   0.24397
C    -3.38978   0.70152  -0.36613
C    -2.03563   0.60672  -1.09418
O    -2.01431  -0.78962  -1.43985
C    -0.93622   0.62970  -0.00072
C    -0.50966   1.86066   0.66011
O     0.15695   1.93474   1.67697
O    -0.98445   2.94319   0.01032
C    -0.59749   4.21890   0.53010
H     5.17516   0.35883   0.09477
H     3.99180   1.16518   1.16980
H     4.52235   1.96790  -0.33507
H     3.30316  -0.65454  -0.79381
H    -0.30623   0.21376  -3.25061
H     0.41807   1.75372  -2.68819
H     1.41894   0.57777  -3.55968
H    -0.57996  -2.30733  -2.37794
H     0.81526  -1.70933  -3.33179
H     1.03759  -3.08306  -2.23406
H    -2.32121  -2.37129  -0.07362
H    -4.33046  -0.82218   0.91699
H    -4.01826   1.59058  -0.33281
H    -1.88852   1.25077  -1.96359
H    -0.94797   4.34200   1.56533
H    -1.06843   4.96722  -0.11829
H     0.49652   4.32632   0.50064
