28
Generated by autodE on: 2022-07-27. E = -628.880475 Ha
C    -1.70108   2.38392   3.56269
N    -1.15968   1.59837   2.47257
C    -1.39734   1.95186   1.17511
O    -2.13445   2.93251   0.92537
C    -0.76738   1.26119   0.06172
N    -0.16154   0.04547   0.00187
C    -0.42655  -0.91954   1.09784
C     0.56196  -0.33225  -1.07433
C     0.72745   0.66089  -2.17655
C     1.21466  -1.65424  -1.13625
O     1.55344  -2.31805  -0.13701
N     1.48418  -2.12060  -2.38406
C     2.17876  -3.37501  -2.58136
H    -2.79314   2.47913   3.47098
H    -1.27895   3.40400   3.59622
H    -1.47190   1.87975   4.51054
H    -0.39495   0.97064   2.68674
H    -0.79675   1.83819  -0.85575
H    -0.55153  -1.91855   0.67737
H     0.41299  -0.94059   1.80246
H    -1.34656  -0.62152   1.60268
H     1.08598   1.62531  -1.77123
H    -0.22498   0.87919  -2.69584
H     1.45611   0.32128  -2.92036
H     1.10652  -1.64280  -3.19308
H     3.13356  -3.38677  -2.03317
H     2.38487  -3.50276  -3.65148
H     1.58404  -4.23647  -2.23230
