28
Generated by autodE on: 2022-06-05. E = -628.880890 Ha
C     4.56501   0.42231   0.01958
N     3.13840   0.53171  -0.18166
C     2.29477  -0.50819   0.08435
O     2.77141  -1.59302   0.48949
C     0.90201  -0.16028  -0.15658
N    -0.19258  -0.93733  -0.01473
C     0.00797  -2.38079   0.26006
C    -1.48744  -0.52301  -0.11372
C    -2.58684  -1.55039  -0.10006
C    -1.82538   0.90241  -0.15201
O    -1.00465   1.83143  -0.32703
N    -3.14340   1.21684   0.02791
C    -3.56777   2.59885   0.08912
H     4.99783  -0.39406  -0.58184
H     4.81842   0.22430   1.07515
H     5.03919   1.36517  -0.28072
H     2.75048   1.41836  -0.48214
H     0.68940   0.86201  -0.44517
H    -0.62288  -2.68440   1.10241
H     1.06062  -2.54335   0.49387
H    -0.26994  -2.95912  -0.63023
H    -2.31173  -2.46272  -0.64525
H    -2.88813  -1.85742   0.91896
H    -3.47927  -1.15605  -0.60259
H    -3.78833   0.51179   0.36068
H    -3.14617   3.13047   0.96052
H    -4.66276   2.63046   0.15748
H    -3.25582   3.14558  -0.81365
