23
Generated by autodE on: 2022-06-05. E = -1307.540552 Ha
F    -1.24906   1.80089  -2.72728
C    -1.88150   1.01980  -1.79127
F    -3.12186   1.56888  -1.62607
C    -1.09947   1.02646  -0.54978
C    -0.29602   0.55139   0.22043
C     0.60654  -0.42079   0.80674
Cl   -0.25757  -1.26297   2.18809
C     1.86692   0.22872   1.40977
F     2.69620  -0.68978   1.91418
F     2.53022   0.90587   0.46012
F     1.56169   1.09270   2.38354
C     0.96254  -1.44755  -0.29374
C    -0.22710  -1.99333  -1.10607
C    -0.68252  -1.20604  -2.36738
C    -2.00233  -0.41365  -2.29658
H     1.49461  -2.27164   0.20249
H     1.67950  -0.95464  -0.96921
H     0.08648  -2.99162  -1.44403
H    -1.08239  -2.16795  -0.43303
H    -0.81851  -1.94085  -3.17401
H     0.12549  -0.53995  -2.71298
H    -2.72774  -0.92437  -1.64480
H    -2.45458  -0.33341  -3.29797
