51
Generated by autodE on: 2022-06-05. E = -1936.428899 Ha. Imaginary frequency = -88.7 cm-1
C   -10.10712  -0.67987  -0.19118
N    -9.43478  -1.45119  -1.21917
C    -9.44210  -1.00684  -2.50806
O   -10.15002  -0.03540  -2.83284
C    -8.60881  -1.62210  -3.55040
C    -5.91732  -0.90852  -3.45261
C    -5.44845  -1.90703  -3.99624
C    -4.29160  -2.50012  -4.69919
F    -4.69007  -3.11509  -5.86765
F    -3.71833  -3.49173  -3.94740
C    -3.24988  -1.43999  -5.03889
C    -3.86103  -0.18105  -5.68341
C    -3.89799   1.08164  -4.80292
C    -4.33832   0.98836  -3.33817
C    -5.76649   0.48664  -3.02854
Cl   -6.99113   1.54011  -3.89929
C    -6.03679   0.66229  -1.51738
F    -5.85263   1.92892  -1.12468
F    -5.19190  -0.10953  -0.81418
F    -7.27888   0.31349  -1.16824
C    -7.48653  -3.26346  -4.79630
C    -7.64882  -2.42515  -6.03084
C    -6.86341  -4.61410  -4.87231
O    -6.26540  -5.14240  -3.91993
N    -6.94927  -5.24629  -6.06496
C    -6.16587  -6.43524  -6.33191
N    -8.15591  -2.88944  -3.67901
C    -8.29096  -3.81879  -2.54182
H   -11.17233  -0.55858  -0.43382
H    -9.66960   0.32702  -0.07484
H   -10.02330  -1.21440   0.76394
H    -8.63326  -1.99237  -0.91674
H    -8.60326  -1.01858  -4.44889
H    -2.52489  -1.92764  -5.70809
H    -2.71962  -1.19935  -4.10565
H    -4.87232  -0.41360  -6.05144
H    -3.27934   0.07525  -6.58148
H    -4.51533   1.83815  -5.31201
H    -2.87891   1.50058  -4.76246
H    -3.66158   0.32494  -2.77827
H    -4.23776   1.98995  -2.89543
H    -7.29867  -1.39362  -5.87991
H    -8.71308  -2.36513  -6.32707
H    -7.07016  -2.83375  -6.86521
H    -7.42955  -4.80225  -6.83761
H    -6.43689  -7.25700  -5.65109
H    -5.08821  -6.23539  -6.20754
H    -6.34980  -6.75829  -7.36399
H    -8.27011  -4.84924  -2.89508
H    -7.46560  -3.66513  -1.83281
H    -9.24914  -3.62795  -2.05429
