20
Generated by autodE on: 2022-06-25. E = -457.715309 Ha
C     3.09379  -0.72084   0.06151
N     1.82867  -0.00489   0.07269
C     1.82603   1.39430   0.00981
C     0.69501   2.11471  -0.05335
C    -0.67969   1.49263  -0.06886
C    -0.57679  -0.02284  -0.01098
C    -1.77777  -0.87320  -0.01394
N    -2.96792  -0.22537  -0.08425
O    -1.73850  -2.11911   0.04525
C     0.63047  -0.65260   0.04897
H     3.62159  -0.59089  -0.89835
H     2.90665  -1.79088   0.21584
H     3.75091  -0.36072   0.86847
H     2.81499   1.85633   0.02005
H     0.77428   3.20351  -0.09340
H    -1.23368   1.81841  -0.97343
H    -1.28328   1.88066   0.77743
H    -3.81973  -0.77559  -0.09519
H    -3.04142   0.78206  -0.14460
H     0.67411  -1.74221   0.08553
