27
Generated by autodE on: 2022-06-25. E = -757.116657 Ha
C    -4.71283   0.11143   1.86914
N    -3.27815  -0.11753   1.86481
C    -2.43980   0.73617   1.26818
O    -2.75434   1.79552   0.72195
C    -1.00549   0.39075   1.32233
N    -0.14472   0.08332   0.55745
C     0.86315  -0.22499  -0.20641
C     1.28295  -1.65588  -0.17383
O     0.67171  -2.47468   0.52995
N     2.34037  -1.97835  -0.93733
C     2.85652  -3.32915  -0.98394
C     1.49178   0.84397  -1.02359
O     2.52504   0.63198  -1.68564
N     0.89581   2.05346  -1.01592
C     1.43185   3.15859  -1.78652
H    -5.11981   0.11516   0.84597
H    -4.95310   1.07709   2.33943
H    -5.19293  -0.69232   2.43890
H    -2.89756  -0.95483   2.29798
H     2.78387  -1.21226  -1.44859
H     2.08532  -4.04210  -1.31737
H     3.69569  -3.36450  -1.68963
H     3.21381  -3.66258   0.00455
H     0.00713   2.18209  -0.54391
H     0.84721   4.05914  -1.56337
H     1.38016   2.96209  -2.87015
H     2.48478   3.34521  -1.52665
