36
Generated by autodE on: 2022-05-29. E = -916.843833 Ha
C    -3.78445  -1.94498   1.17556
N    -2.55600  -1.43879   0.59561
C    -2.51040  -0.32519  -0.13393
O    -3.47557   0.35314  -0.48892
C    -1.09272   0.10054  -0.59086
C    -1.03846  -0.06754  -2.06109
N    -0.96109  -0.22108  -3.20821
O    -0.07890  -0.69332  -0.01021
C     0.98009   0.13110   0.54439
C     2.32181  -0.47662   0.22894
C     3.30643  -0.55857   1.22092
C     4.56957  -1.08098   0.92411
C     4.85249  -1.53620  -0.36651
C     3.86890  -1.46378  -1.36047
C     2.61117  -0.93464  -1.06583
C     0.74850   1.51964  -0.06259
C    -0.78063   1.58260  -0.23263
C    -1.43766   2.02455   1.06940
C    -1.92179   3.44014   1.11852
O    -1.53066   1.25713   2.01392
H    -3.70819  -3.03251   1.30371
H    -4.62643  -1.71846   0.50874
H    -3.98412  -1.48569   2.15795
H    -1.66178  -1.83453   0.87425
H     0.83500   0.16639   1.63434
H     3.07972  -0.21122   2.23227
H     5.33098  -1.13915   1.70560
H     5.83651  -1.95048  -0.59878
H     4.08442  -1.82193  -2.37006
H     1.84521  -0.87884  -1.84304
H     1.14624   2.31986   0.57571
H     1.22741   1.58885  -1.04970
H    -1.07223   2.25736  -1.04504
H    -1.14802   4.12697   0.74069
H    -2.78530   3.52341   0.43600
H    -2.22348   3.71433   2.13743
