11
Generated by autodE on: 2022-05-29. E = -231.350010 Ha
C     1.92190  -0.22788  -0.55264
C     0.70006   0.28049  -0.75567
C    -0.42707   0.01113   0.18263
C    -1.74545   0.64392  -0.16592
O    -0.28422  -0.68602   1.18100
H     2.74891  -0.03174  -1.24009
H     2.12073  -0.85976   0.31873
H     0.48659   0.91313  -1.62222
H    -1.62640   1.73901  -0.22364
H    -2.06439   0.30986  -1.16758
H    -2.50936   0.38648   0.57907
