25
Generated by autodE on: 2022-07-26. E = -685.400759 Ha
C    -4.80604  -0.26930   1.05313
N    -3.78337   0.04367   0.07707
C    -2.46472  -0.05579   0.38464
O    -2.08965  -0.39702   1.52636
C    -1.52137   0.25631  -0.67502
C    -1.88027   0.66614  -1.96559
N    -2.22331   1.00732  -3.03357
O    -0.17028   0.17191  -0.49475
C     0.52907  -0.15436   0.53075
C     1.95735  -0.16589   0.42123
C     2.70374  -0.52599   1.56582
C     4.09460  -0.55554   1.51089
C     4.75396  -0.22842   0.32029
C     4.01989   0.13041  -0.82072
C     2.63155   0.16369  -0.77792
H    -4.76134  -1.32416   1.37223
H    -5.78941  -0.08226   0.60441
H    -4.70707   0.35734   1.95382
H    -4.06493   0.27568  -0.86909
H     0.00583  -0.41412   1.45211
H     2.17754  -0.77955   2.48890
H     4.66913  -0.83403   2.39669
H     5.84522  -0.25257   0.27811
H     4.54144   0.38391  -1.74613
H     2.05451   0.44081  -1.66166
