25
Generated by autodE on: 2022-05-29. E = -685.404263 Ha
C    -3.70328  -0.20358  -2.09028
N    -2.55723  -0.22626  -1.20583
C    -2.68887  -0.52204   0.11013
O    -3.78389  -0.84159   0.61432
C    -1.49281  -0.46234   0.93142
C    -1.50321  -0.74619   2.29883
N    -1.46932  -0.97655   3.44812
O    -0.32658  -0.11421   0.31532
C     0.84722   0.01743   0.81475
C     1.94420   0.37464  -0.02856
C     1.78980   0.58925  -1.41941
C     2.89404   0.92684  -2.19125
C     4.15961   1.05520  -1.59782
C     4.32046   0.84520  -0.22319
C     3.22207   0.50678   0.56177
H    -4.26585  -1.14787  -2.03257
H    -4.40013   0.61712  -1.84746
H    -3.35282  -0.06805  -3.12114
H    -1.65802   0.08588  -1.55512
H     0.98351  -0.15611   1.88840
H     0.80378   0.48497  -1.87593
H     2.77650   1.09166  -3.26429
H     5.02298   1.31949  -2.21251
H     5.30658   0.94574   0.23464
H     3.33558   0.33937   1.63518
