45
Generated by autodE on: 2022-06-01. E = -1569.452603 Ha
C     0.27619   0.18045   3.15411
C    -0.25505  -0.60186   1.98187
O    -0.38825  -1.80936   2.03809
C    -0.48842   0.15450   0.66294
C    -0.95435   1.62326   0.87794
C    -2.28994   1.57107   1.67743
C    -3.33829   1.13538   0.61382
C    -2.46657   0.88456  -0.63271
C    -1.48528   2.06490  -0.49615
C    -1.58102  -0.36169  -0.36636
Cl   -2.60361  -1.78696   0.06923
C    -0.67029  -0.80168  -1.54869
C    -1.36566  -1.08151  -2.80249
N    -1.93839  -1.28980  -3.78658
O     0.02672  -2.02708  -1.12211
C     1.02623  -1.59719  -0.30220
O     1.83052  -2.34946   0.17327
C     0.85107  -0.04830  -0.21787
C     2.03520   0.77429   0.21009
C     3.00880   0.26271   1.08145
C     4.06312   1.07084   1.51500
C     4.15969   2.39665   1.08611
C     3.19197   2.91312   0.21921
C     2.13616   2.10954  -0.21379
N     0.35384   0.19851  -1.59251
C     1.33403   0.07595  -2.67512
H     0.66364  -0.52281   3.90209
H     1.06870   0.87233   2.83678
H    -0.51739   0.78984   3.60993
H    -0.18494   2.25754   1.33049
H    -2.26841   0.87808   2.52751
H    -2.51023   2.56936   2.08063
H    -3.91835   0.25721   0.91838
H    -4.04629   1.94524   0.39022
H    -3.02514   0.80007  -1.57392
H    -0.73467   2.13381  -1.28186
H    -2.02901   3.01824  -0.42678
H     2.94085  -0.76704   1.42686
H     4.81201   0.65734   2.19420
H     4.98541   3.02610   1.42579
H     3.25640   3.94845  -0.12273
H     1.38758   2.52517  -0.88755
H     2.06178   0.89108  -2.59172
H     0.81237   0.18345  -3.63590
H     1.87826  -0.88530  -2.67189
