23
Generated by autodE on: 2022-06-01. E = -684.220638 Ha
C    -1.34744  -1.67979   0.96405
N    -1.21689  -0.40912   0.25056
C    -2.26642   0.34389  -0.09954
C    -3.62296   0.06344   0.10544
N    -4.75560  -0.16518   0.27347
O    -1.84551   1.46622  -0.70063
C    -0.43017   1.45320  -0.73811
O     0.17987   2.38514  -1.23277
C    -0.05402   0.21721  -0.12391
C     1.31075  -0.26188   0.07043
C     1.66319  -1.62589   0.00766
C     2.98887  -2.02322   0.18685
C     3.98938  -1.07470   0.41903
C     3.65368   0.28256   0.46676
C     2.33118   0.68767   0.29491
H    -0.55239  -1.74930   1.71475
H    -1.27267  -2.51596   0.25760
H    -2.32450  -1.70420   1.45957
H     0.90992  -2.38194  -0.20979
H     3.24196  -3.08453   0.13230
H     5.02599  -1.39065   0.55620
H     4.42732   1.03294   0.64555
H     2.07639   1.74681   0.33910
