47
Generated by autodE on: 2022-06-26. E = -1466.906652 Ha
C    -2.05686   4.59152   1.13623
N    -2.03584   3.25972   0.55681
C    -1.01441   2.42892   0.75824
O    -0.00794   2.68165   1.42179
C    -1.09708   1.07119   0.07687
O    -2.44207   0.74812  -0.34435
C    -2.49921  -0.61071  -0.36673
O    -3.45582  -1.24343  -0.70181
C    -1.09478  -1.03464   0.09694
C    -0.97384  -2.37392   0.78817
O    -0.45317  -2.51217   1.87045
O    -1.47583  -3.33799   0.03813
C    -1.32500  -4.68604   0.52463
O    -0.78119   0.03932   0.97389
C    -0.11042  -0.76669  -1.13649
C    -0.55602  -1.44796  -2.42743
C     1.23348  -1.37290  -0.69265
O     1.46256  -2.55498  -0.92315
C     2.17262  -0.56786   0.08984
O     3.19463  -1.14255   0.75062
C     3.00930  -2.38993   1.43722
C     2.16645   0.80541   0.00658
O     3.16589   1.45444   0.60348
C     3.19544   2.88066   0.77557
C     1.20606   1.48071  -0.89094
O     1.47136   2.56360  -1.38675
C    -0.15076   0.81364  -1.16602
C    -0.72897   1.42664  -2.44186
H    -2.89589   5.15035   0.70617
H    -2.17746   4.54796   2.23019
H    -1.11821   5.11897   0.91322
H    -2.83960   2.92775   0.03177
H    -1.80984  -4.79148   1.50447
H    -1.81237  -5.32631  -0.21818
H    -0.25670  -4.93090   0.60437
H    -0.55521  -2.53497  -2.29098
H     0.14369  -1.19956  -3.23695
H    -1.56094  -1.13781  -2.73435
H     3.77308  -2.40977   2.22618
H     2.01015  -2.44340   1.89162
H     3.15435  -3.24099   0.75925
H     3.92440   3.05383   1.57778
H     3.53115   3.37598  -0.14441
H     2.21244   3.26209   1.07559
H    -1.71294   1.01376  -2.68370
H    -0.83141   2.51126  -2.31373
H    -0.05297   1.24486  -3.28728
