21
Generated by autodE on: 2022-06-26. E = -777.404778 Ha
C    -4.89850   0.21999   0.17694
N    -3.52624  -0.16314  -0.10073
C    -2.50232   0.54506   0.38423
O    -2.57557   1.54888   1.08542
C    -1.15030   0.00903   0.00003
O    -0.92650  -1.01958  -0.72483
C     0.61958  -1.17484  -0.83255
O     1.05676  -2.08532  -1.47275
C     1.02361  -0.08230  -0.06385
C     2.32960   0.42170   0.29389
O     2.52559   1.40638   0.98611
O     3.30159  -0.33734  -0.23613
C     4.64960   0.05987   0.04876
O    -0.08806   0.60491   0.41939
H    -5.09476   0.20861   1.26014
H    -5.10294   1.23459  -0.19814
H    -5.56941  -0.49022  -0.31879
H    -3.33887  -0.98130  -0.67512
H     5.29095  -0.66885  -0.46029
H     4.84523   1.07111  -0.33682
H     4.83879   0.03921   1.13195
