26
Generated by autodE on: 2022-06-26. E = -689.460862 Ha
C    -3.06743  -0.24723  -1.04408
O    -2.09356   0.77161  -0.79368
C    -0.86823   0.33467  -0.37752
C    -0.41537   0.48984   0.89853
O    -1.03135   1.02109   1.95408
C    -2.37702   1.50637   1.90230
C     0.97611   0.03989   1.25790
O     1.36292   0.18489   2.40940
C     1.83839  -0.57676   0.21772
C     3.21043  -1.01818   0.62434
C     1.37729  -0.72575  -1.04888
C     2.21068  -1.34049  -2.12851
C     0.00609  -0.25651  -1.41296
O    -0.40212  -0.34650  -2.56965
H    -3.98270   0.26684  -1.36633
H    -3.27500  -0.82040  -0.12504
H    -2.73529  -0.93321  -1.83729
H    -2.59120   1.87000   2.91529
H    -3.07754   0.69857   1.64702
H    -2.47285   2.32942   1.18247
H     3.34334  -2.09698   0.44016
H     3.39438  -0.81664   1.68611
H     3.97918  -0.50017   0.02747
H     1.66671  -1.37487  -3.07948
H     2.51119  -2.36474  -1.85224
H     3.14284  -0.76942  -2.27323
