47
Generated by autodE on: 2022-06-26. E = -1466.860357 Ha. Imaginary frequency = -328.3 cm-1
C    -1.89901   4.79309   0.51230
N    -2.00147   3.38098   0.18767
C    -1.19180   2.48427   0.75745
O    -0.34155   2.72711   1.61194
C    -1.33661   1.07662   0.25966
O    -2.46319   0.64923  -0.33551
C    -2.45847  -0.77257  -0.28467
O    -3.29963  -1.42933  -0.83569
C    -1.27972  -1.05453   0.49236
C    -0.80849  -2.30998   1.07340
O     0.00094  -2.36751   1.97851
O    -1.34431  -3.35409   0.44718
C    -0.88902  -4.65622   0.85468
O    -0.82380   0.11119   1.02281
C     0.04447  -0.56152  -1.54845
C    -0.70475  -1.28130  -2.62425
C     1.15169  -1.35364  -0.92168
O     1.26840  -2.55217  -1.17631
C     2.09125  -0.66097  -0.02495
O     3.04630  -1.29295   0.67573
C     3.10523  -2.70955   0.87867
C     2.08413   0.71448   0.06588
O     3.02146   1.26963   0.84612
C     2.99203   2.64164   1.26366
C     1.20820   1.51676  -0.81326
O     1.43491   2.70451  -1.02210
C     0.02564   0.84857  -1.44258
C    -0.68362   1.66566  -2.49498
H    -2.63133   5.34523  -0.08742
H    -2.10322   4.96579   1.57984
H    -0.88873   5.16849   0.28784
H    -2.66314   3.07490  -0.52057
H    -1.04711  -4.79821   1.93253
H    -1.48742  -5.37280   0.28159
H     0.17705  -4.77046   0.61315
H    -0.87167  -2.33016  -2.35235
H    -0.09560  -1.26526  -3.54601
H    -1.66349  -0.80597  -2.85864
H     3.88785  -2.85059   1.63621
H     2.15307  -3.09863   1.25987
H     3.38601  -3.23542  -0.04273
H     3.65133   2.68684   2.14080
H     3.37923   3.30100   0.47607
H     1.97684   2.94893   1.54421
H    -1.71559   1.32474  -2.64095
H    -0.69376   2.72712  -2.22371
H    -0.15817   1.56609  -3.45882
