25
Generated by autodE on: 2022-06-16. E = -685.427046 Ha
C    -2.61887  -1.48394  -0.52149
C    -1.51817  -0.59539   0.04564
C    -1.59074  -0.55554   1.57729
N    -1.68537   0.79541  -0.42612
C    -0.55683   1.25642  -0.80615
C    -0.41878   2.61520  -1.26029
N    -0.30372   3.70529  -1.64407
C     0.62417   0.30878  -0.73188
C     1.63237   0.73761   0.32614
O     1.96739   1.90598   0.44115
C     2.21259  -0.31590   1.18254
C     1.74764  -1.57982   1.19895
C     0.60391  -2.02997   0.37511
O     0.22685  -3.19362   0.42652
C    -0.10181  -1.02420  -0.49914
H    -2.43036  -2.52678  -0.22695
H    -2.63601  -1.43305  -1.62048
H    -3.60338  -1.17996  -0.13566
H    -2.54683  -0.11428   1.89386
H    -0.77334   0.04656   2.00123
H    -1.52923  -1.57389   1.98739
H     1.18539   0.30902  -1.68144
H     3.03457  -0.00006   1.83032
H     2.18936  -2.33941   1.84926
H    -0.26330  -1.51502  -1.46852
