12
Generated by autodE on: 2022-06-16. E = -381.636095 Ha
O    -2.63869   0.38316  -0.02626
C    -1.42473   0.20683  -0.01381
C    -0.48286   1.35228  -0.01044
C     0.84758   1.15940   0.00241
C     1.42472  -0.20682   0.01402
O     2.63869  -0.38316   0.02616
C     0.48286  -1.35228   0.01041
C    -0.84758  -1.15940  -0.00243
H    -0.93111   2.34860  -0.01906
H     1.56017   1.98765   0.00514
H     0.93111  -2.34860   0.01890
H    -1.56017  -1.98765  -0.00529
