25
Generated by autodE on: 2022-06-16. E = -685.346772 Ha. Imaginary frequency = -169.3 cm-1
C    -2.83439  -1.26073  -0.59283
C    -2.01015  -0.46823   0.37228
C    -2.00838  -0.85496   1.81467
N    -1.50259   0.66316   0.01081
C    -0.61085   1.33810  -0.50038
C    -0.51551   2.70393  -0.79568
N    -0.26749   3.80527  -1.09366
C     0.91815  -0.07819  -1.19552
C     1.88666   0.59446  -0.28800
O     2.55007   1.56659  -0.64349
C     2.00440   0.02870   1.07409
C     1.42392  -1.14587   1.38565
C     0.62621  -1.93071   0.40086
O     0.18787  -3.05137   0.72426
C     0.40471  -1.32602  -0.88879
H    -2.55697  -2.32141  -0.49297
H    -2.69098  -0.92806  -1.62802
H    -3.90021  -1.17043  -0.32072
H    -3.03834  -0.80626   2.20629
H    -1.35364  -0.20969   2.41325
H    -1.67507  -1.90193   1.89526
H     0.89659   0.30435  -2.21878
H     2.62029   0.58448   1.78549
H     1.53168  -1.59387   2.37699
H    -0.17346  -1.89078  -1.62137
