20
Generated by autodE on: 2022-06-19. E = -457.715343 Ha
C    -3.09046   0.73062   0.08671
N    -1.83164   0.01206  -0.02680
C    -1.82146  -1.28104  -0.56492
C    -0.68718  -1.95833  -0.80324
C     0.68398  -1.39632  -0.51951
C     0.57482   0.01407   0.03628
C     1.77442   0.79058   0.38832
N     2.96513   0.17704   0.17173
O     1.73401   1.94475   0.86120
C    -0.63494   0.60939   0.23466
H    -3.50061   0.98901  -0.90457
H    -2.93037   1.65780   0.65145
H    -3.83515   0.12054   0.62038
H    -2.80795  -1.69941  -0.77276
H    -0.76141  -2.96697  -1.21618
H     1.29969  -1.41171  -1.44204
H     1.22843  -2.05765   0.18555
H     3.81739   0.68068   0.39151
H     3.03915  -0.75138  -0.22395
H    -0.68389   1.62485   0.63102
