39
Generated by autodE on: 2022-06-19. E = -1138.723388 Ha. Imaginary frequency = -398.6 cm-1
C     4.18036  -1.33700   0.25708
O     2.92695  -0.88483  -0.28192
C     2.42188   0.23120   0.23808
O     2.96653   0.89010   1.10230
C     1.09326   0.52801  -0.33090
C     0.57262   0.00104  -1.59842
O     0.99707  -0.79617  -2.39676
O    -0.64715   0.63505  -1.77668
C    -0.91179   1.31377  -0.57925
C    -1.82881   2.41995  -0.71413
N    -2.57684   3.30485  -0.76721
C    -1.62063  -0.10811   0.44936
N    -2.68982  -0.67402  -0.28386
C    -3.88536   0.11456  -0.52656
C    -2.43561  -1.75397  -1.12538
C    -1.34579  -2.53116  -1.02926
C    -0.32464  -2.31129   0.05153
C    -0.46173  -0.94730   0.70091
C     0.22422  -0.71354   1.99769
N     1.16277  -1.62096   2.36095
O    -0.04601   0.25703   2.72204
N     0.32857   1.61165  -0.01131
C     0.50467   2.64379   1.00682
H     4.96104  -0.58155   0.09159
H     4.41949  -2.26016  -0.28198
H     4.07868  -1.53532   1.33325
H    -1.95417   0.46158   1.32134
H    -4.75875  -0.55025  -0.59892
H    -4.05219   0.80318   0.31258
H    -3.82901   0.70362  -1.45909
H    -3.20854  -1.93783  -1.87510
H    -1.22142  -3.37263  -1.71209
H     0.69884  -2.45035  -0.34071
H    -0.43263  -3.08712   0.83667
H     1.72459  -1.41593   3.18099
H     1.50622  -2.32502   1.71816
H    -0.36590   2.66247   1.67292
H     1.40190   2.42337   1.58697
H     0.60954   3.62115   0.51265
