34
Generated by autodE on: 2022-06-17. E = -728.375164 Ha
C    -2.36648   2.03389   2.09065
O    -1.91237   0.70666   1.80343
C    -1.74072   0.41700   0.50306
O    -1.94202   1.21494  -0.40162
N    -1.33181  -0.87010   0.29930
N    -1.00214  -1.69863   1.35989
C    -0.53226  -2.78908   0.87937
C    -0.51716  -2.85954  -0.61453
C    -0.83312  -1.38651  -1.01257
C    -1.88883  -1.31392  -2.11593
C     0.44042  -0.67548  -1.42091
C     1.19257   0.11167  -0.63083
C     2.43074   0.74231  -1.05689
C     3.21717   1.55972  -0.31621
C     2.92407   1.96216   1.10210
C     4.48173   2.13768  -0.88739
H    -2.45207   2.09086   3.18238
H    -1.64322   2.78019   1.73070
H    -3.34570   2.22205   1.62639
H    -0.21571  -3.58881   1.55265
H     0.44275  -3.20964  -1.02004
H    -1.29915  -3.55559  -0.96546
H    -1.51816  -1.84926  -3.00325
H    -2.10125  -0.27535  -2.39742
H    -2.82156  -1.79495  -1.78604
H     0.76247  -0.88128  -2.44813
H     0.86525   0.29278   0.39697
H     2.74672   0.52494  -2.08408
H     1.98343   1.55244   1.49215
H     2.87887   3.06237   1.18436
H     3.74298   1.63898   1.76894
H     4.65639   1.81265  -1.92364
H     5.35564   1.84543  -0.27784
H     4.45162   3.24190  -0.86781
