11
Generated by autodE on: 2022-06-17. E = -376.764212 Ha
C     2.42391   0.50945   1.02820
N     1.67863  -0.00341   0.30501
N     0.95877  -0.62815  -0.54140
C    -0.39206  -0.37300  -0.49803
O    -1.18200  -0.90931  -1.25807
O    -0.75844   0.51413   0.45001
C    -2.15462   0.81643   0.53575
H     3.12396   0.98694   1.70200
H    -2.73516  -0.08813   0.77007
H    -2.25648   1.54797   1.34650
H    -2.51848   1.24791  -0.40843
