34
Generated by autodE on: 2022-06-17. E = -728.284576 Ha. Imaginary frequency = -402.8 cm-1
C     2.12272   0.49738  -1.58791
O     1.26027  -0.64234  -1.51722
C     1.17264  -1.26037  -0.31799
O     1.74279  -0.84755   0.68721
N     0.37633  -2.36641  -0.30115
N    -0.27346  -2.64347  -1.37784
C    -1.29777  -2.64716  -1.98521
C    -2.84231  -1.42812  -0.96380
C    -2.20645  -0.80489   0.09011
C    -2.21591  -1.41601   1.46749
C    -1.55504   0.46772  -0.12886
C    -0.80169   1.13334   0.78874
C    -0.12402   2.37748   0.51138
C     0.83754   2.95563   1.27759
C     1.36866   2.35843   2.54831
C     1.49926   4.23213   0.84737
H     3.15780   0.21635  -1.34213
H     1.78715   1.28888  -0.90370
H     2.06956   0.85142  -2.62484
H    -1.74626  -3.03959  -2.89627
H    -3.00731  -0.88221  -1.89726
H    -3.46725  -2.30818  -0.78820
H    -2.87050  -0.83073   2.13713
H    -2.59246  -2.44793   1.43928
H    -1.21593  -1.42430   1.92305
H    -1.65382   0.89513  -1.13316
H    -0.67093   0.69099   1.77866
H    -0.38564   2.86779  -0.43353
H     2.41524   2.03796   2.39668
H     0.80171   1.48684   2.89838
H     1.38860   3.11180   3.35411
H     2.58919   4.08655   0.73905
H     1.37119   5.01758   1.61364
H     1.10079   4.60624  -0.10691
