23
Generated by autodE on: 2022-07-26. E = -330.610178 Ha
C    -0.02391  -1.47233   1.51537
C    -0.00791  -1.21361   0.04576
C     0.00670  -2.38322  -0.89723
N    -0.21060   0.05792  -0.39557
C    -0.91363   0.27924  -1.67160
C     0.17764   1.15693   0.30676
C     1.40215   1.06495   1.15600
C    -0.41043   2.50146  -0.01213
H    -0.40193  -2.49121   1.70895
H     0.94428  -1.39216   2.05331
H    -0.69538  -0.74566   2.01395
H     0.38541  -2.12890  -1.89915
H     0.67125  -3.16931  -0.50072
H    -0.98520  -2.86550  -1.03408
H    -1.14293  -0.67581  -2.15009
H    -0.30556   0.89335  -2.35031
H    -1.86170   0.80099  -1.48251
H     2.10447   0.32862   0.71547
H     1.26381   0.73746   2.20802
H     1.90404   2.04624   1.19909
H    -0.01629   2.95574  -0.94658
H    -0.17676   3.20780   0.79889
H    -1.50899   2.48683  -0.11511
