23
Generated by autodE on: 2022-05-29. E = -330.610189 Ha
C     1.21176   1.32430   1.09959
C     1.18740   0.20052   0.11701
C     2.47704  -0.40627  -0.35647
N     0.00765  -0.43901  -0.10997
C     0.06602  -1.86564  -0.47450
C    -1.19917   0.18623  -0.04210
C    -2.47232  -0.57763   0.18740
C    -1.28109   1.62875  -0.41473
H     2.19729   1.37082   1.59277
H     1.00984   2.34326   0.70687
H     0.43708   1.15592   1.87481
H     2.81965  -1.27054   0.25223
H     2.43816  -0.76038  -1.40109
H     3.27867   0.34609  -0.30590
H     0.61976  -1.98121  -1.41591
H     0.57755  -2.44681   0.30555
H    -0.94121  -2.26145  -0.62462
H    -2.99075  -0.88116  -0.74757
H    -2.33015  -1.48735   0.79056
H    -3.18997   0.05473   0.73715
H    -0.50902   1.86166  -1.17433
H    -1.12514   2.36985   0.39751
H    -2.27456   1.84523  -0.84451
