13
Generated by autodE on: 2022-05-29. E = -767.141595 Ha
Cl    1.92278  -1.09273  -0.66526
C     0.66616  -0.10521  -0.02315
C     0.55476   1.22401   0.03323
C    -0.87248   1.43789   0.59093
C    -1.87220   0.99101  -0.50421
C    -1.74719  -0.33744  -0.56542
C    -0.67513  -0.67840   0.49735
O    -0.97174   0.31281   1.49377
H     1.23616   1.99994  -0.30955
H    -1.06910   2.38977   1.09594
H    -2.47927   1.66380  -1.10913
H    -2.22056  -1.05737  -1.23187
H    -0.65184  -1.69602   0.90098
