36
Generated by autodE on: 2022-05-29. E = -1097.756535 Ha. Imaginary frequency = -50.4 cm-1
C    -2.99461   0.25670  -1.72447
N    -2.55353   0.19903  -0.31597
C    -2.46430  -1.04915   0.22835
C    -2.52296  -1.28423   1.71361
C    -2.69318  -2.28234  -0.60166
C     0.22991  -0.87477  -0.83801
C     1.05137  -1.53495   0.28902
C     2.54823  -1.43342  -0.09588
C     2.80208  -0.12508   0.00326
Cl    4.21498   0.77042  -0.41896
C     1.47820   0.54812   0.44367
O     0.98403  -0.50017   1.29897
C     0.50779   0.44088  -0.75170
C    -2.12060   1.38255   0.19798
C    -1.53011   1.51139   1.57088
C    -2.43042   2.67081  -0.51897
H    -3.63117  -0.59823  -1.95936
H    -2.12477   0.26249  -2.39812
H    -3.58218   1.16192  -1.89600
H    -3.18284  -2.14892   1.91027
H    -1.54964  -1.53096   2.17939
H    -2.94663  -0.43454   2.26228
H    -3.76095  -2.59007  -0.65467
H    -2.16157  -3.12463  -0.12771
H    -2.32063  -2.22084  -1.63310
H    -0.28241  -1.42299  -1.62416
H     0.70333  -2.50097   0.67171
H     3.17930  -2.24212  -0.45951
H     1.56497   1.50824   0.96314
H     0.27597   1.25296  -1.43659
H    -0.95082   0.63248   1.86416
H    -2.27847   1.70847   2.36608
H    -0.84287   2.37259   1.58115
H    -3.51412   2.88994  -0.60764
H    -1.99063   3.50379   0.04736
H    -2.01544   2.72928  -1.54081
