43
Generated by autodE on: 2022-06-19. E = -1032.874483 Ha
C     2.61050  -2.18864  -2.70016
N     1.62759  -1.36264  -2.02918
C     1.75742  -0.95617  -0.76395
O     2.73613  -1.19336  -0.04788
C     0.55915  -0.15215  -0.18820
C     1.23581   0.90861   0.70760
O     1.34641   0.82042   1.91398
O     1.76224   1.89975   0.00254
C     2.43245   2.93639   0.73738
C    -0.32646  -1.13354   0.66002
C    -0.44350  -0.83759   2.14495
O    -0.17809  -1.67473   2.98730
C    -1.74259  -1.12720  -0.02846
C    -2.90802  -1.27494   0.95803
C    -1.82003  -2.28422  -1.03367
C    -1.71714   0.22210  -0.80320
C    -2.17365   1.41532   0.04614
C    -3.60172   1.85026  -0.08445
O    -1.37468   2.00419   0.76004
N    -0.33791   0.33372  -1.22706
C    -0.00711   1.44924  -2.09630
H     2.44592  -3.26122  -2.50245
H     3.61745  -1.92493  -2.34918
H     2.55212  -2.01915  -3.78325
H     0.75399  -1.11856  -2.48974
H     1.73004   3.42224   1.42936
H     2.78832   3.65321  -0.01103
H     3.27822   2.51852   1.30121
H     0.09435  -2.14604   0.61233
H    -0.90350   0.12821   2.42945
H    -2.80676  -2.21598   1.51918
H    -2.97568  -0.45632   1.68810
H    -3.86069  -1.31284   0.40884
H    -1.73632  -3.24686  -0.50626
H    -2.78513  -2.26486  -1.56299
H    -1.01645  -2.23406  -1.77918
H    -2.37737   0.16590  -1.68298
H    -3.69684   2.38706  -1.04524
H    -3.88030   2.52592   0.73487
H    -4.28360   0.98900  -0.13511
H     1.02869   1.36533  -2.44812
H    -0.12403   2.43912  -1.62100
H    -0.67006   1.41109  -2.97546
