14
Generated by autodE on: 2022-06-19. E = -270.687344 Ha
C    -1.72501  -1.32760  -0.90426
C    -0.86542  -0.20408  -0.40994
C    -1.47169   1.16010  -0.55113
C     0.36041  -0.46261   0.11704
C     1.29036   0.52726   0.63141
O     2.38990   0.24341   1.10065
H    -1.24274  -2.30750  -0.78499
H    -1.97168  -1.17563  -1.96936
H    -2.68783  -1.33323  -0.36443
H    -1.71574   1.34486  -1.61103
H    -2.42994   1.19345  -0.00533
H    -0.83645   1.97756  -0.19128
H     0.71096  -1.49858   0.17562
H     0.97148   1.59275   0.58863
