29
Generated by autodE on: 2022-06-19. E = -762.137946 Ha
C    -2.03806   2.96239   1.93864
N    -1.84797   1.68167   1.29522
C    -0.63720   1.30718   0.82502
O     0.36634   2.02929   0.99216
C    -0.58585   0.03441   0.06963
C    -1.73795  -0.81669  -0.11802
O    -2.90403  -0.52651   0.16702
O    -1.42739  -2.04373  -0.59249
C    -2.52024  -2.92440  -0.86636
N     0.63372  -0.32032  -0.50566
C     0.65610  -0.77451  -1.91675
C     1.75641  -0.10232   0.14894
C     3.12398  -0.14980  -0.40289
C     4.19086   0.21131   0.59519
O     3.38829  -0.45898  -1.56114
H    -1.30650   3.10781   2.74814
H    -1.92734   3.80622   1.23516
H    -3.04828   2.99868   2.36619
H    -2.64496   1.10175   1.03506
H    -3.07788  -3.15329   0.05367
H    -2.07378  -3.84045  -1.27149
H    -3.20614  -2.48203  -1.60406
H     1.25702  -0.06230  -2.49260
H     1.11512  -1.76675  -1.98732
H    -0.36483  -0.79195  -2.29866
H     1.65907   0.13592   1.20407
H     4.00448   1.22265   0.99325
H     4.15241  -0.48143   1.45237
H     5.17960   0.16752   0.12168
