46
Generated by autodE on: 2022-06-23. E = -1127.134829 Ha
C    -0.56521   2.71338  -1.52364
C    -1.55619   1.98875  -0.66478
O    -2.75592   2.08929  -0.81856
C    -1.00311   1.08220   0.49259
C    -1.69848   1.59961   1.76441
C    -0.94291   2.56509   2.62092
O    -2.84086   1.25714   2.01944
N     0.44915   1.21490   0.58166
C     1.01898   0.21299   0.01597
C     2.48614   0.13931  -0.12350
C     3.17281  -1.08849  -0.12367
C     4.56440  -1.11556  -0.24038
C     5.28520   0.07516  -0.36963
C     4.60925   1.30099  -0.37448
C     3.22139   1.33395  -0.24790
C     0.02223  -0.75802  -0.61785
N     0.36554  -2.15728  -0.74115
C     0.75638  -2.61127  -2.06379
C    -0.19861  -3.05815   0.13986
C    -0.92732  -2.70872   1.21967
C    -1.21923  -1.26803   1.51635
C    -1.25520  -0.44993   0.19821
C    -2.50917  -0.79557  -0.62153
N    -3.68326  -0.67360   0.01963
O    -2.42005  -1.20487  -1.78351
H     0.05487   3.37310  -0.89753
H    -1.10162   3.29783  -2.28177
H     0.12103   2.00250  -2.00927
H    -1.59285   2.93644   3.42335
H    -0.05882   2.06552   3.04614
H    -0.56531   3.39892   2.00879
H     2.61403  -2.01639  -0.01403
H     5.08850  -2.07397  -0.22880
H     6.37308   0.04934  -0.46772
H     5.16734   2.23414  -0.48062
H     2.68769   2.28525  -0.25732
H    -0.13413  -0.37100  -1.63939
H    -0.09094  -2.59678  -2.77512
H     1.55676  -1.97189  -2.46437
H     1.14308  -3.63837  -2.00121
H     0.00322  -4.10616  -0.09720
H    -1.30631  -3.48629   1.88456
H    -2.16889  -1.16716   2.05445
H    -0.45046  -0.82803   2.17773
H    -3.71492  -0.09342   0.85823
H    -4.53192  -0.79359  -0.52547
