26
Generated by autodE on: 2022-06-23. E = -669.376947 Ha
C    -3.88754   1.09243  -1.09579
C    -2.40775   0.96260  -0.83615
O    -1.62012   1.83564  -1.22927
C    -1.92062  -0.20637  -0.11646
N    -0.57531  -0.20913   0.05349
C     0.57632  -0.07078   0.11764
C     1.97657   0.11056   0.18391
C     2.78622  -0.81104   0.87988
C     4.16165  -0.59982   0.92425
C     4.72844   0.51168   0.28917
C     3.91883   1.42336  -0.39896
C     2.54140   1.23326  -0.45943
C    -2.67406  -1.32425   0.41395
C    -1.88452  -2.40597   1.12381
O    -3.90416  -1.41538   0.30473
H    -4.45365   1.09010  -0.15264
H    -4.25789   0.23958  -1.68385
H    -4.06438   2.03017  -1.63981
H     2.33123  -1.67187   1.37152
H     4.79705  -1.30813   1.45958
H     5.80836   0.66857   0.33081
H     4.36449   2.28906  -0.89282
H     1.89332   1.93225  -0.99034
H    -2.57518  -3.18554   1.47001
H    -1.33855  -1.99143   1.98667
H    -1.13634  -2.85286   0.44928
