34
Generated by autodE on: 2022-05-28. E = -923.550190 Ha
C    -1.55271   3.88151   0.50326
C    -2.14123   2.51579   0.31996
O    -3.30356   2.32894  -0.00973
C    -1.26160   1.32096   0.54574
N    -0.04732   1.43230   0.93468
C     0.53794   0.10308   1.11341
C     1.90076  -0.04517   0.48104
C     2.79629  -0.98870   1.00514
C     4.03638  -1.20291   0.39940
C     4.39695  -0.47014  -0.73669
C     3.50894   0.47312  -1.26237
C     2.26510   0.68234  -0.65914
C    -0.52676  -0.93183   0.64375
F    -0.72114  -1.88030   1.63827
C    -0.27451  -1.63109  -0.72719
C    -1.41153  -2.62256  -0.92494
C    -2.48433  -1.87578  -1.21693
C    -2.00106  -0.43627  -1.18080
O    -0.63362  -0.56633  -1.61801
C    -1.77829  -0.07359   0.32733
H    -0.70951   4.02053  -0.19182
H    -1.14653   3.98684   1.52090
H    -2.32028   4.64404   0.32035
H     0.64987  -0.05553   2.19869
H     2.51185  -1.56170   1.89155
H     4.72550  -1.94050   0.81775
H     5.36821  -0.63342  -1.20977
H     3.78395   1.04877  -2.14952
H     1.57170   1.41220  -1.07913
H     0.74911  -1.97713  -0.89764
H    -1.34611  -3.69845  -0.76686
H    -3.52017  -2.18578  -1.35555
H    -2.54205   0.31061  -1.77001
H    -2.64865  -0.30581   0.95426
