13
Generated by autodE on: 2022-05-28. E = -406.788332 Ha
F    -1.95716   0.84754   0.90898
C    -0.96593   0.14741   0.36530
C    -0.54832  -1.09195   0.61512
C     0.70676  -1.20635  -0.28349
C     1.79994  -0.27428   0.29725
C     1.35779   0.96502   0.06790
C     0.00362   0.76768  -0.65790
O     0.29241  -0.41500  -1.42462
H    -0.90584  -1.82947   1.33017
H     1.01169  -2.21716  -0.57524
H     2.69306  -0.60914   0.82402
H     1.78317   1.92679   0.35182
H    -0.38220   1.59294  -1.26650
