34
Generated by autodE on: 2022-05-28. E = -923.419575 Ha. Imaginary frequency = -347.5 cm-1
C    -1.82075   3.68253  -0.42078
C    -2.00052   2.78021   0.76968
O    -2.88550   2.92120   1.61279
C    -1.14346   1.61318   0.80458
N    -0.04466   1.26804   1.18766
C     0.78311   0.27086   1.39836
C     1.98423   0.06889   0.60842
C     2.83988  -1.00260   0.93700
C     3.95578  -1.28396   0.14969
C     4.24169  -0.49857  -0.97324
C     3.40004   0.57154  -1.30349
C     2.28056   0.85556  -0.52399
C    -0.96217  -1.36680   0.51998
F    -0.83784  -2.17458   1.59328
C    -0.32562  -1.74810  -0.82570
C    -1.35268  -2.63095  -1.57553
C    -2.35934  -1.80195  -1.87445
C    -1.93959  -0.42888  -1.29912
O    -0.50980  -0.49877  -1.51116
C    -1.99963  -0.52921   0.23901
H    -2.24031   3.18690  -1.31285
H    -0.75458   3.87295  -0.61787
H    -2.35889   4.62476  -0.24774
H     0.68462  -0.24678   2.35640
H     2.60994  -1.61968   1.80905
H     4.60790  -2.12004   0.41326
H     5.11794  -0.71744  -1.58770
H     3.62080   1.18927  -2.17732
H     1.62684   1.68960  -0.78705
H     0.72083  -2.07139  -0.81348
H    -1.25612  -3.70228  -1.74971
H    -3.31252  -2.01440  -2.35830
H    -2.37342   0.46592  -1.75882
H    -2.89547  -0.36523   0.83584
