52
Generated by autodE on: 2022-06-02. E = -1415.379159 Ha
C    -1.10208  -9.87671   2.86545
O    -1.26570  -8.47043   3.10918
C    -0.71431  -7.98876   4.21695
O    -0.17520  -8.67935   5.05640
C    -0.88194  -6.46829   4.33710
O    -1.20404  -5.87633   3.09845
C     0.01913  -5.38520   2.56323
C     0.59914  -6.54292   1.70751
C     0.02592  -6.67121   0.33158
O     1.39644  -7.33767   2.17353
C     0.87714  -5.02438   3.77345
C     0.38390  -5.72283   4.82825
C     0.79695  -5.92386   6.29020
C     1.51750  -7.29049   6.52399
C     2.56190  -7.70917   5.52463
O     1.34328  -7.89282   7.56549
C    -0.46770  -5.85691   7.19248
F    -1.27127  -6.93182   7.07582
F    -0.18608  -5.74494   8.49785
F    -1.21878  -4.77832   6.87292
C     1.81728  -4.90876   6.87969
C     1.57249  -3.43051   6.55374
C     2.72521  -2.87777   5.72079
C     3.07374  -3.73813   4.50557
C     1.96612  -3.98324   3.45599
C     2.70522  -4.41753   2.16583
C     1.24820  -2.64269   3.15748
H    -1.62450 -10.08116   1.92423
H    -1.54158 -10.46404   3.68369
H    -0.03349 -10.11680   2.76888
H    -1.74614  -6.32056   4.99939
H    -0.21950  -4.53591   1.91196
H     0.30762  -5.78610  -0.26262
H    -1.07368  -6.67431   0.39992
H     0.38321  -7.58658  -0.15704
H     3.48732  -7.14552   5.72940
H     2.77412  -8.77688   5.66432
H     2.26723  -7.50448   4.48980
H     2.81231  -5.19986   6.52870
H     1.83933  -5.07984   7.96141
H     1.47032  -2.85358   7.48558
H     0.62318  -3.30499   6.01433
H     3.62689  -2.81423   6.35459
H     2.50178  -1.84693   5.40513
H     3.48623  -4.71014   4.81501
H     3.89458  -3.23175   3.97430
H     2.03325  -4.53421   1.30320
H     3.25081  -5.36045   2.31247
H     3.43209  -3.63834   1.89348
H     2.00113  -1.85990   2.97728
H     0.61840  -2.70534   2.25914
H     0.61274  -2.32177   3.99454
