52
Generated by autodE on: 2022-06-02. E = -1415.251274 Ha. Imaginary frequency = -143.8 cm-1
C    -1.53686 -10.12063   2.94071
O    -1.71435  -8.70280   3.07127
C    -1.22791  -8.14209   4.18163
O    -0.80990  -8.76629   5.13645
C    -1.46586  -6.67662   4.18682
O    -1.45687  -5.93108   3.12325
C    -0.62159  -5.91564   2.08802
C     0.44252  -6.84452   1.85424
C     1.24089  -6.63710   0.58857
O     0.73228  -7.77925   2.62435
C     1.00672  -4.82068   4.19511
C     0.64516  -5.56698   5.10288
C     0.85301  -5.98987   6.50830
C     1.30211  -7.47297   6.65182
C     2.20299  -8.01488   5.58479
O     1.00205  -8.10146   7.64764
C    -0.40653  -5.74259   7.36191
F    -0.13118  -5.73499   8.67542
F    -0.96592  -4.54955   7.07533
F    -1.36623  -6.66468   7.16776
C     2.05742  -5.15497   7.07776
C     1.89678  -3.63847   7.26913
C     1.52955  -2.74209   6.07233
C     2.36418  -2.92811   4.78951
C     1.61748  -3.61717   3.59733
C     2.62999  -3.96061   2.49694
C     0.53846  -2.67452   3.03454
H    -1.95815 -10.38836   1.96497
H    -2.06821 -10.65221   3.74312
H    -0.46767 -10.37297   2.97528
H    -2.11058  -6.28684   4.97582
H    -0.84503  -5.10064   1.40396
H     1.02494  -7.48077  -0.08860
H     1.00113  -5.70017   0.06904
H     2.31492  -6.67044   0.82304
H     1.71411  -7.97175   4.60168
H     3.11104  -7.39478   5.51620
H     2.47875  -9.04766   5.83297
H     2.90135  -5.35006   6.40291
H     2.32399  -5.59045   8.05274
H     1.17496  -3.44419   8.07810
H     2.87334  -3.30476   7.66050
H     0.46149  -2.86152   5.84159
H     1.63675  -1.70249   6.42087
H     3.27145  -3.51460   5.00783
H     2.71207  -1.95244   4.41415
H     3.35650  -4.71145   2.84273
H     3.18177  -3.05240   2.20823
H     2.12430  -4.34913   1.60385
H     1.01430  -1.75121   2.66884
H     0.00743  -3.14564   2.19551
H    -0.20297  -2.40265   3.80005
