49
Generated by autodE on: 2022-06-01. E = -1315.775453 Ha
C     5.47146  -1.00745  -0.49820
N     4.10408  -0.55186  -0.66691
C     3.14976  -0.85072   0.21854
O     3.32858  -1.53163   1.23356
C     1.75880  -0.31699  -0.07387
N     1.19166   0.44811   1.02391
C    -0.02325   0.85015   0.29127
C    -1.00584   1.72060   1.01612
C    -1.01529   1.76894   2.41687
C    -1.97726   2.52454   3.09306
C    -2.94168   3.23790   2.37641
C    -2.93728   3.19424   0.97867
C    -1.97749   2.44013   0.30056
C     0.70879   1.48513  -0.90717
O     0.49395   2.48363  -1.53749
O     1.78675   0.68747  -1.12481
C    -0.63279  -0.52971  -0.26364
C    -1.51726  -0.24297  -1.46513
O    -1.02721   0.09689  -2.54802
N    -2.84924  -0.29434  -1.27623
C    -3.77105   0.15673  -2.30160
C    -1.30690  -1.37549   0.88329
C    -1.76969  -2.68797   0.25686
C    -0.65028  -3.39344   0.05570
C     0.48075  -2.50947   0.55858
O    -0.16617  -1.80917   1.63628
C     0.68569  -1.37368  -0.51220
C     0.98091  -1.95603  -1.88773
H     5.49773  -2.09370  -0.32727
H     6.03782  -0.77396  -1.40746
H     5.95568  -0.51454   0.36016
H     3.86774   0.05699  -1.44395
H     0.94674  -0.19954   1.77659
H    -0.27080   1.21307   2.98841
H    -1.97166   2.55274   4.18509
H    -3.69442   3.82746   2.90494
H    -3.68520   3.75133   0.40979
H    -1.97923   2.42455  -0.78923
H    -3.21559  -0.43157  -0.34072
H    -3.55747  -0.34243  -3.25733
H    -4.79468  -0.08782  -1.99241
H    -3.69561   1.24622  -2.45893
H    -2.01414  -0.82869   1.51654
H    -2.79380  -2.93451  -0.01741
H    -0.52824  -4.36067  -0.43008
H     1.40339  -2.99127   0.89213
H     0.11987  -2.51716  -2.27230
H     1.22890  -1.17706  -2.61580
H     1.83350  -2.64980  -1.81195
