57
Generated by autodE on: 2022-06-06. E = -1478.621061 Ha
C    -3.75473   2.83329   0.18705
N    -2.66755   1.89261   0.01208
C    -2.86347   0.57603  -0.10568
O    -3.97046   0.03653  -0.20512
C    -1.57996  -0.28993  -0.06062
C    -1.95833  -1.57593  -0.85151
O    -2.28039  -2.62873  -0.34302
O    -1.91420  -1.38539  -2.16452
C    -2.21849  -2.51573  -2.99688
C    -1.23760  -0.69066   1.40109
C    -1.77641   0.26831   2.50942
C    -1.37706  -0.33481   3.84511
C    -0.06121  -0.11761   3.95510
C     0.32531   0.62238   2.68078
O    -0.85540   1.37115   2.39052
C     0.29100  -0.46384   1.54469
F     0.99846  -1.56523   2.00930
C     0.81913  -0.04361   0.12983
C     1.37293  -1.22337  -0.70134
C     0.92109  -2.54503  -0.55286
C     1.30937  -3.54513  -1.44947
C     2.16154  -3.25034  -2.51607
C     2.62142  -1.94072  -2.67615
C     2.22874  -0.94332  -1.78089
C     1.86805   1.05441   0.31348
C     3.16344   0.69423   0.71585
C     4.11407   1.67004   1.02038
C     3.78495   3.02648   0.92418
C     2.49515   3.39295   0.53277
C     1.54139   2.41324   0.23729
N    -0.41149   0.45434  -0.51411
C    -0.32204   0.89496  -1.89784
H    -4.61157   2.52930  -0.42890
H    -4.08415   2.88139   1.23931
H    -3.42670   3.83378  -0.12413
H    -1.70998   2.18035   0.20173
H    -2.12479  -2.16165  -4.02963
H    -3.24112  -2.86883  -2.80353
H    -1.50264  -3.32805  -2.80586
H    -1.52820  -1.72710   1.58801
H    -2.81498   0.59515   2.40240
H    -2.04022  -0.89983   4.50015
H     0.63210  -0.45861   4.72286
H     1.21458   1.25498   2.71063
H     0.26649  -2.82037   0.26857
H     0.94162  -4.56375  -1.30486
H     2.46548  -4.03344  -3.21456
H     3.28677  -1.68856  -3.50539
H     2.59171   0.07364  -1.93139
H     3.42694  -0.36110   0.80440
H     5.11630   1.36931   1.33502
H     4.52905   3.79180   1.15698
H     2.22265   4.44865   0.46157
H     0.53084   2.71216  -0.03872
H    -0.04984   0.09701  -2.60562
H    -1.28752   1.31104  -2.21161
H     0.43001   1.69128  -1.98017
