44
Generated by autodE on: 2022-06-06. E = -1071.757939 Ha
C     2.56964  -1.61524   3.30638
N     2.53540  -1.09739   1.95813
C     1.50357  -0.33397   1.51650
O     0.49193  -0.14885   2.23444
C     1.63055   0.24913   0.18481
C     2.74322   0.06636  -0.67558
O     3.80817  -0.51184  -0.39830
O     2.54385   0.56756  -1.93313
C     3.63416   0.45399  -2.84621
N     0.51091   1.02297  -0.23971
C     0.73659   2.46323  -0.43215
C    -0.69353   0.48872  -0.22854
C    -0.87221  -0.97011  -0.35685
C    -1.82266  -1.63037   0.43857
C    -2.02480  -3.00436   0.29475
C    -1.29861  -3.72256  -0.65892
C    -0.36538  -3.06385  -1.47067
C    -0.14318  -1.69794  -1.31656
C    -1.90115   1.32267  -0.09405
C    -2.00155   2.25239   0.95685
C    -3.16727   3.00063   1.11520
C    -4.23276   2.83788   0.22295
C    -4.14061   1.90754  -0.81820
C    -2.98731   1.13815  -0.96783
H     1.64889  -2.17152   3.54105
H     3.42281  -2.29938   3.40442
H     2.67670  -0.81898   4.06507
H     3.35868  -1.13577   1.35928
H     3.89035  -0.60048  -3.02893
H     4.52562   0.97809  -2.46923
H     3.29748   0.92050  -3.78051
H     1.65537   2.57643  -1.01784
H     0.87081   2.95459   0.54098
H    -0.10073   2.91684  -0.97352
H    -2.38732  -1.06668   1.18258
H    -2.75497  -3.51368   0.92735
H    -1.46324  -4.79603  -0.77731
H     0.19034  -3.61958  -2.22910
H     0.57841  -1.18352  -1.95190
H    -1.17765   2.35602   1.66405
H    -3.24681   3.71047   1.94136
H    -5.14198   3.43090   0.34539
H    -4.97408   1.77596  -1.51149
H    -2.91500   0.40249  -1.77091
