13
Generated by autodE on: 2022-06-06. E = -406.788330 Ha
F     2.08670   0.41200   0.92247
C     0.98084   0.29827   0.19287
C     0.35314   1.19434  -0.56605
C    -0.91252   0.42292  -1.01168
C    -1.81653   0.22396   0.23104
C    -1.16446  -0.65350   0.99840
C     0.12500  -0.98198   0.20531
O    -0.37764  -0.91766  -1.14121
H     0.58207   2.23875  -0.76560
H    -1.39548   0.76200  -1.93449
H    -2.74870   0.75602   0.41891
H    -1.40927  -1.04107   1.98654
H     0.64422  -1.92076   0.42766
