46
Generated by autodE on: 2022-06-21. E = -1130.176979 Ha
C    -1.02686   2.74463  -1.67176
N    -1.53206   1.59262  -0.95466
C    -1.21934   1.29588   0.31301
O    -0.59002   2.04434   1.06976
C    -1.67575  -0.09624   0.80289
C    -2.46765   0.11048   2.08761
O    -2.51631  -0.72453  -0.15811
C    -1.80181  -1.63133  -1.02581
C    -2.50055  -2.97791  -1.03444
C    -0.32021  -1.58255  -0.55076
C     0.42639  -2.92009  -0.70294
C     0.44530  -0.61423  -1.46461
O     0.26312  -0.61695  -2.67371
C     1.48465   0.26812  -0.88896
O     2.14458   0.96776  -1.82326
C     2.69807   2.25565  -1.51702
C     1.70764   0.32155   0.46095
O     2.79331   0.97125   0.92961
C     2.65812   1.93650   1.98728
C     0.83104  -0.37664   1.42149
O     1.13567  -0.39733   2.60776
C    -0.43406  -1.07521   0.92141
C    -0.74476  -2.20931   1.90766
H    -0.30651   2.42516  -2.44194
H    -1.84780   3.28907  -2.16100
H    -0.52434   3.41514  -0.96502
H    -2.09764   0.91260  -1.45336
H    -3.28430   0.82363   1.90063
H    -2.90496  -0.83457   2.43032
H    -1.81984   0.52101   2.87309
H    -1.84625  -1.22972  -2.04899
H    -2.46127  -3.48594  -0.06156
H    -3.55714  -2.82452  -1.30208
H    -2.05429  -3.63608  -1.79398
H     1.45664  -2.82863  -0.32808
H    -0.07298  -3.72623  -0.15394
H     0.47025  -3.20042  -1.76473
H     2.78201   2.77665  -2.47986
H     2.02967   2.81862  -0.84993
H     3.69049   2.16168  -1.05783
H     3.38531   2.73213   1.77218
H     1.64561   2.35931   2.00160
H     2.88733   1.47884   2.95878
H    -1.66652  -2.73679   1.63828
H     0.07972  -2.93359   1.92917
H    -0.85495  -1.81083   2.92169
