20
Generated by autodE on: 2022-06-21. E = -440.613215 Ha
C    -3.35408   0.88975   0.29596
C    -2.39052  -0.22610   0.20063
O    -1.13575   0.05399   0.08903
C    -0.08877  -0.78098  -0.00664
C    -0.33474  -2.23756   0.01435
C     1.20133  -0.15392  -0.12600
O     2.25579  -0.83009  -0.20958
N     1.24766   1.21466  -0.16557
C     2.50800   1.92023  -0.10828
H    -3.92397   0.84136   1.24210
H    -4.09978   0.83864  -0.51841
H    -2.83507   1.85755   0.24315
H    -2.69103  -1.27666   0.22215
H    -0.99212  -2.55901  -0.81911
H    -0.84105  -2.55855   0.94733
H     0.62018  -2.77075  -0.06767
H     0.40056   1.72778   0.04710
H     3.01808   1.81041   0.86684
H     3.19750   1.55349  -0.88328
H     2.32894   2.98936  -0.28321
