20
Generated by autodE on: 2022-07-27. E = -440.599098 Ha
C    -1.00977  -3.06045  -1.29068
C    -0.45640  -1.72232  -0.99125
O    -0.59405  -1.26422   0.20379
C    -0.24434  -0.16875   0.89888
C    -0.53121  -0.26399   2.36250
C     0.40690   0.98896   0.35208
O     0.85960   1.87154   1.11992
N     0.52691   1.13256  -1.01459
C     1.02276   2.38671  -1.55063
H    -1.48108  -3.49528  -0.39781
H    -1.75968  -3.00566  -2.10118
H    -0.21558  -3.74123  -1.64807
H     0.10272  -1.14913  -1.73256
H    -1.00580   0.65545   2.74306
H    -1.20899  -1.10833   2.55604
H     0.38250  -0.42291   2.96637
H    -0.16540   0.66099  -1.58914
H     1.09565   2.30216  -2.64299
H     0.37210   3.24543  -1.30555
H     2.02294   2.60375  -1.14985
