26
Generated by autodE on: 2022-06-21. E = -689.460855 Ha
C     2.49863  -2.29931  -0.03846
O     1.10290  -2.14753  -0.31774
C     0.44902  -1.00293  -0.12127
C     0.90017   0.16744   0.41224
O     2.16600   0.32653   0.89931
C     3.03916   1.14690   0.11577
C    -0.01563   1.31793   0.56908
O     0.39216   2.34734   1.10426
C    -1.42645   1.21545   0.08781
C    -2.29769   2.42319   0.23086
C    -1.88787   0.05437  -0.43964
C    -3.29853  -0.10032  -0.91778
C    -0.98576  -1.11923  -0.56392
O    -1.37494  -2.18160  -1.02919
H     2.73907  -3.33127  -0.32387
H     3.09835  -1.60284  -0.64177
H     2.70748  -2.14921   1.02850
H     4.00229   1.17113   0.64260
H     2.64948   2.17110   0.02030
H     3.18256   0.71303  -0.88785
H    -3.17680   2.19753   0.85717
H    -1.74804   3.25774   0.68151
H    -2.68627   2.74054  -0.75104
H    -4.01177   0.10681  -0.10319
H    -3.51864   0.62257  -1.72070
H    -3.48024  -1.11282  -1.29684
