46
Generated by autodE on: 2022-06-21. E = -1130.082118 Ha. Imaginary frequency = -54.6 cm-1
C    -0.87590   2.70970  -1.66776
N    -1.39065   1.50547  -1.05071
C    -1.44561   1.34245   0.29679
O    -1.08220   2.24454   1.07830
C    -1.94734   0.09247   0.86723
C    -2.36375   0.08979   2.29777
O    -2.44990  -0.92443   0.14978
C    -2.20930  -1.40227  -1.03171
C    -2.95362  -2.61629  -1.42032
C     0.32208  -1.91321  -0.40176
C     0.12186  -3.32720  -0.87714
C     0.91900  -0.96983  -1.37354
O     0.91252  -1.19259  -2.58508
C     1.58364   0.27277  -0.86886
O     2.12038   0.98547  -1.87330
C     2.67833   2.28591  -1.66858
C     1.67251   0.51004   0.47230
O     2.52177   1.45024   0.96597
C     2.04697   2.47892   1.84501
C     0.92975  -0.34267   1.42846
O     0.98143  -0.08556   2.63861
C     0.23921  -1.55078   0.92587
C    -0.30943  -2.49534   1.95243
H    -0.31929   2.44725  -2.57863
H    -1.68134   3.41466  -1.93709
H    -0.20160   3.21167  -0.96540
H    -1.89282   0.86734  -1.65477
H    -3.08842   0.89340   2.51786
H    -2.81496  -0.87619   2.55749
H    -1.49075   0.25815   2.95002
H    -1.67061  -0.82351  -1.77761
H    -3.18765  -3.23766  -0.54395
H    -3.90526  -2.33598  -1.91163
H    -2.37801  -3.19904  -2.15270
H     1.05905  -3.89505  -0.73184
H    -0.66576  -3.85253  -0.32422
H    -0.11393  -3.35808  -1.94799
H     2.81850   2.70419  -2.67412
H     1.99881   2.93062  -1.09549
H     3.64740   2.22395  -1.15579
H     2.57593   3.40258   1.56408
H     0.96600   2.62555   1.73435
H     2.28360   2.22999   2.88966
H    -1.28193  -2.90205   1.63813
H     0.37145  -3.35427   2.08528
H    -0.42134  -2.00387   2.92489
