22
Generated by autodE on: 2022-06-12. E = -625.122643 Ha
C    -4.63725   0.98654   0.02218
N    -3.19176   0.92842   0.01688
C    -2.53345  -0.25142  -0.03841
O    -3.09705  -1.34755  -0.10473
N    -1.14197  -0.03602  -0.01251
O    -0.56991  -1.24150  -0.05950
N     0.69640  -1.44004  -0.05360
C     1.62178  -0.41919  -0.00181
C     2.94658  -0.94301  -0.00684
C     4.04424  -0.10055   0.03654
C     3.85391   1.28893   0.08575
C     2.55993   1.81926   0.09165
C     1.44053   0.99098   0.04944
H    -5.06039   0.48830   0.91034
H    -5.05953   0.49679  -0.86990
H    -4.95026   2.03753   0.02739
H    -2.65135   1.78384   0.09140
H     3.06880  -2.02633  -0.04662
H     5.05299  -0.51789   0.03186
H     4.71741   1.95692   0.11937
H     2.41645   2.90112   0.13027
H     0.44336   1.41112   0.05494
