50
Generated by autodE on: 2022-06-08. E = -1654.774203 Ha
C     3.90134   2.60091   1.05479
N     3.31835   1.28239   0.89435
C     1.99551   1.10942   0.85224
O     1.18756   2.02327   1.03667
C     1.44427  -0.31272   0.53173
C     2.40768  -1.43760   0.94950
C     1.87362  -2.50976   1.84216
O     3.55494  -1.43201   0.53248
O     0.24530  -0.48629   1.25112
C    -0.87730  -0.00001   0.56094
C    -2.10144  -0.88474   0.90699
O    -3.22260  -0.56805   0.57093
O    -1.79512  -1.95491   1.61280
C    -2.88557  -2.82309   1.97556
C    -1.31370   1.35653   1.20230
O    -1.87514   2.27599   0.66311
O    -1.12986   1.26625   2.51992
C    -1.50662   2.41328   3.29400
C    -0.50182  -0.08263  -0.98630
C    -0.93413   1.11996  -1.83159
F    -0.36662   2.27390  -1.46017
F    -0.61187   0.96665  -3.13351
F    -2.27002   1.26441  -1.80242
C    -1.07918  -1.44906  -1.58502
C    -0.62424  -1.64172  -3.02189
C     0.67112  -1.96115  -2.94187
C     0.99120  -1.93626  -1.45982
O    -0.24590  -2.37211  -0.88354
C     1.05342  -0.41835  -0.99014
C     1.98503   0.40108  -1.87888
H     3.69656   3.23832   0.17857
H     3.48955   3.10084   1.94348
H     4.98661   2.49716   1.17335
H     3.90779   0.48821   0.65430
H     2.65029  -3.26512   2.01436
H     1.55313  -2.06133   2.79612
H     0.97527  -2.96159   1.39641
H    -2.43945  -3.62772   2.56981
H    -3.62855  -2.27083   2.56726
H    -3.35771  -3.22929   1.07013
H    -1.31224   2.14845   4.33951
H    -0.89616   3.27985   3.00136
H    -2.57127   2.64601   3.14956
H    -2.14078  -1.61403  -1.38711
H    -1.24485  -1.48200  -3.90146
H     1.39020  -2.12768  -3.74253
H     1.83069  -2.55576  -1.13318
H     1.71020   0.30623  -2.93449
H     3.01116   0.02589  -1.75658
H     1.97158   1.46736  -1.62392
