50
Generated by autodE on: 2022-06-08. E = -1654.685163 Ha. Imaginary frequency = -191.9 cm-1
C     3.76670   2.68347   0.74880
N     3.21423   1.37618   1.03531
C     1.88969   1.16034   0.99361
O     1.06599   2.07085   0.82231
C     1.45303  -0.25661   1.12288
C     2.35315  -1.41125   1.30050
C     1.74504  -2.70982   1.74835
O     3.56231  -1.30716   1.07711
O     0.19024  -0.57005   1.35266
C    -0.94218   0.03390   1.08434
C    -2.13335  -0.85295   1.11047
O    -3.26360  -0.43333   0.94335
O    -1.82722  -2.13073   1.31229
C    -2.91235  -3.06944   1.26074
C    -1.21069   1.45316   1.51471
O    -1.90787   2.24595   0.92804
O    -0.73642   1.62713   2.75355
C    -0.89358   2.93911   3.31351
C    -0.36788  -0.17446  -1.41822
C    -1.08686   1.00336  -1.98364
F    -0.56571   2.18627  -1.63236
F    -1.05046   0.96382  -3.34534
F    -2.39322   1.00925  -1.65913
C    -0.93964  -1.59598  -1.68772
C    -0.56367  -1.95008  -3.14433
C     0.76060  -2.13234  -3.12388
C     1.16803  -1.88169  -1.65678
O     0.01538  -2.37918  -0.96828
C     1.00419  -0.35613  -1.45362
C     2.07443   0.57569  -1.89860
H     3.64036   2.95319  -0.31375
H     3.27075   3.45456   1.35578
H     4.83769   2.67628   0.98572
H     3.81029   0.54631   1.04096
H     2.53388  -3.46975   1.80598
H     1.27092  -2.58284   2.73439
H     0.95641  -3.02491   1.05117
H    -2.46368  -4.05351   1.43558
H    -3.65368  -2.84199   2.03972
H    -3.39430  -3.03930   0.27295
H    -0.43692   2.89869   4.30895
H    -0.37621   3.67923   2.68644
H    -1.95839   3.20069   3.39284
H    -1.96954  -1.79456  -1.37812
H    -1.26045  -1.97894  -3.98066
H     1.45038  -2.34729  -3.93882
H     2.10028  -2.33449  -1.30482
H     2.16211   0.47689  -2.99690
H     3.04795   0.30246  -1.46914
H     1.84717   1.62214  -1.66985
