49
Generated by autodE on: 2022-05-31. E = -1074.417212 Ha
C     4.10421  -1.08406  -1.34204
N     2.77517  -0.58006  -1.61494
C     2.10237   0.17479  -0.73992
O     2.58522   0.54052   0.34026
C     0.69298   0.61990  -1.21239
C     0.86984   1.99598  -1.85952
N     0.20692  -0.35265  -2.18723
C    -0.36738  -1.46527  -1.42703
C    -1.29024  -2.34008  -2.25593
C    -0.98621  -0.87623  -0.08877
C    -0.67568  -1.90922   1.00054
C     0.74540  -2.34483   1.28319
O    -1.58918  -2.51286   1.54657
C    -2.50419  -0.56829  -0.18576
C    -3.00761   0.08334   1.12956
C    -2.45993   1.53432   1.04349
C    -1.60944   1.49905  -0.24480
C    -2.53181   0.64614  -1.12924
C    -0.34672   0.57637  -0.01354
C     0.23586   0.97807   1.32791
O     0.25166   0.28917   2.33008
O     0.60079   2.26654   1.33521
C     1.17694   2.76459   2.54650
H     4.77969  -0.26506  -1.05269
H     4.09676  -1.82274  -0.52277
H     4.49793  -1.56579  -2.24562
H     2.24180  -0.88427  -2.42730
H     1.64331   1.94512  -2.63916
H     1.17495   2.73745  -1.11092
H    -0.06656   2.32785  -2.32906
H    -0.49866   0.08002  -2.77896
H     0.48198  -2.09275  -1.12509
H    -1.69000  -3.16046  -1.64172
H    -0.73144  -2.78437  -3.09362
H    -2.13793  -1.77750  -2.67316
H     1.51081  -1.61615   1.00265
H     0.92892  -3.28199   0.73114
H     0.82898  -2.57243   2.35451
H    -3.09486  -1.43871  -0.49138
H    -4.10740   0.07047   1.15164
H    -2.65518  -0.44476   2.02163
H    -1.90937   1.84405   1.94126
H    -3.27239   2.26258   0.90523
H    -1.34111   2.49347  -0.61435
H    -2.17188   0.46240  -2.14563
H    -3.53624   1.08923  -1.20730
H     1.39901   3.82264   2.36475
H     2.10300   2.21794   2.77808
H     0.47231   2.66361   3.38455
