21
Generated by autodE on: 2022-07-27. E = -420.770534 Ha
C    -2.51617  -2.02965  -1.39171
C    -1.29626  -1.33601  -0.90062
N    -1.31542  -0.04919  -0.60955
C    -0.41985   0.87074  -0.12295
C    -0.83696   2.31177  -0.19241
C     0.87705   0.56621   0.40768
O     1.68224   1.48706   0.70077
N     1.24924  -0.74920   0.61882
C     2.45691  -1.02904   1.37176
H    -2.86177  -2.79815  -0.67593
H    -2.31598  -2.55592  -2.34133
H    -3.34516  -1.32251  -1.55457
H    -0.35714  -1.87914  -0.81788
H    -2.22354   0.38439  -0.80273
H    -0.31905   2.87246  -0.99389
H    -0.62024   2.84128   0.74965
H    -1.91888   2.39878  -0.38570
H     0.49708  -1.42048   0.74164
H     2.61356  -2.11583   1.40292
H     3.32752  -0.56680   0.88520
H     2.41826  -0.65042   2.40976
