49
Generated by autodE on: 2022-05-31. E = -1074.357843 Ha. Imaginary frequency = -102.8 cm-1
C     3.74568  -0.90756   0.07078
N     2.45315  -0.71530  -0.56222
C     2.11534   0.53161  -0.98712
O     2.93257   1.47224  -0.93931
C     0.76305   0.79089  -1.53308
C     0.51157   2.20853  -1.95912
N     0.04173  -0.15131  -2.22967
C    -0.16058  -1.44499  -2.03423
C    -1.13338  -2.18801  -2.87536
C    -1.16497  -0.85169   0.33214
C    -0.61161  -2.14319   0.70318
C    -1.58846  -3.27716   0.91489
O     0.60762  -2.38790   0.79938
C    -2.66564  -0.65559   0.08614
C    -3.26444  -0.17049   1.44362
C    -2.66255   1.25846   1.59148
C    -1.80377   1.40922   0.29527
C    -2.68911   0.65809  -0.70973
C    -0.62902   0.44559   0.48229
C     0.48408   0.86611   1.35424
O     1.21671   0.15498   2.02240
O     0.61272   2.21210   1.36705
C     1.70173   2.74430   2.12660
H     3.84655  -0.31370   0.99563
H     3.85705  -1.97039   0.32367
H     4.56177  -0.61988  -0.60729
H     1.71162  -1.29116  -0.14261
H     1.18409   2.51942  -2.77799
H     0.68953   2.89007  -1.11701
H    -0.52740   2.34000  -2.29436
H    -0.63721   0.27373  -2.86406
H     0.56570  -1.99940  -1.44999
H    -1.65449  -2.94416  -2.26809
H    -0.61894  -2.73110  -3.68878
H    -1.87906  -1.51522  -3.32549
H    -2.05579  -3.54237  -0.04841
H    -2.40187  -3.00041   1.60163
H    -1.05102  -4.15311   1.30092
H    -3.18387  -1.51078  -0.36153
H    -2.99218  -0.83744   2.27378
H    -4.36308  -0.13831   1.38445
H    -2.05687   1.38059   2.50119
H    -3.44961   2.02712   1.60904
H    -1.52693   2.44054   0.05742
H    -2.27290   0.58026  -1.71929
H    -3.69856   1.08993  -0.78267
H     1.61980   3.83502   2.04836
H     2.66043   2.40901   1.70551
H     1.63486   2.43519   3.17974
