27
Generated by autodE on: 2022-07-27. E = -649.480487 Ha
C    -4.43314  -1.54781  -0.22752
C    -3.31856  -0.68975  -0.79486
O    -3.52743   0.02991  -1.78530
C    -2.07409  -0.80851  -0.07775
N    -0.90447  -0.19316  -0.35599
C    -0.82884   0.70993  -1.52610
C     0.23107  -0.41647   0.35785
C     0.22426  -1.47873   1.29225
N     0.25344  -2.35671   2.06298
C     1.45746   0.39868   0.28164
C     1.42091   1.80791   0.25242
C     2.60469   2.54515   0.23105
C     3.84390   1.89661   0.25717
C     3.89163   0.49968   0.31024
C     2.71154  -0.24335   0.32316
H    -4.18093  -2.61653  -0.32804
H    -4.57803  -1.34842   0.84621
H    -5.36512  -1.34229  -0.77028
H    -2.06287  -1.45596   0.79769
H     0.21796   0.89465  -1.77217
H    -1.34297   1.65222  -1.30287
H    -1.33723   0.22524  -2.36239
H     0.46348   2.33017   0.26628
H     2.55743   3.63631   0.20832
H     4.76835   2.47829   0.24461
H     4.85415  -0.01622   0.33560
H     2.75603  -1.33412   0.35730
