33
Generated by autodE on: 2022-06-17. E = -728.098616 Ha. Imaginary frequency = -393.8 cm-1
C    -4.30237  -1.42436  -0.41428
C    -3.22100  -0.46573  -0.85576
O    -3.47806   0.46960  -1.61571
C    -1.91006  -0.73145  -0.25629
C    -2.06753   0.28439   1.70322
C    -0.73334   0.43982   2.05415
C     0.35640  -0.41024   0.19227
C     0.42932  -1.71298   0.78014
N     0.51214  -2.76598   1.27457
C     1.66570   0.28325   0.04140
C     1.76859   1.68741   0.08912
C     3.01028   2.31350  -0.01657
C     4.17646   1.55395  -0.15863
C     4.08991   0.15973  -0.19351
C     2.84753  -0.46930  -0.09403
N    -0.71813  -0.19468  -0.65425
C    -0.69056   0.94166  -1.57787
H    -4.14089  -2.40001  -0.90367
H    -4.26676  -1.59725   0.67217
H    -5.28693  -1.03381  -0.70287
H    -1.82890  -1.69093   0.25070
H    -2.62552   1.13807   1.30948
H    -2.66950  -0.50183   2.16475
H    -0.26669  -0.23742   2.77276
H    -0.23833   1.40213   1.91692
H     0.87455   2.29626   0.22078
H     3.06734   3.40370   0.02279
H     5.14790   2.04752  -0.23610
H     4.99320  -0.44487  -0.30228
H     2.79333  -1.55927  -0.12674
H    -1.03197   1.86208  -1.07975
H    -1.35627   0.73267  -2.41741
H     0.32929   1.08093  -1.94705
