24
Generated by autodE on: 2022-06-17. E = -555.972350 Ha
C     4.37497   0.30953  -0.11073
C     2.99415   0.85138  -0.36370
O     2.71286   1.57823  -1.31985
C     2.00384   0.59842   0.66207
N     1.09409  -0.20737   0.76394
C     0.03707  -0.92516   0.88327
C     0.09444  -2.20742   1.66382
C    -1.20517  -0.44968   0.24918
C    -2.42458  -1.11256   0.49051
C    -3.60685  -0.65734  -0.09666
C    -3.59583   0.46095  -0.93527
C    -2.38705   1.12157  -1.18823
C    -1.20292   0.67167  -0.60819
H     4.94513   1.04250   0.48505
H     4.88818   0.17096  -1.07312
H     4.34552  -0.63564   0.45196
H     1.11771  -2.40371   2.00902
H    -0.56827  -2.15673   2.54338
H    -0.24194  -3.05594   1.04712
H    -2.45427  -1.98352   1.14625
H    -4.54389  -1.18185   0.10491
H    -4.52184   0.81363  -1.39502
H    -2.36629   1.99043  -1.85036
H    -0.26354   1.18105  -0.83354
