36
Generated by autodE on: 2022-06-17. E = -713.258567 Ha. Imaginary frequency = -422.7 cm-1
C     3.96905   0.60747   1.71767
C     2.67525  -0.14976   1.63679
O     2.46728  -1.21852   2.21576
C     1.69014   0.34228   0.68959
N     0.65551   0.98948   0.74852
C    -0.38883   1.32888  -0.00640
C    -0.47936   2.75417  -0.47252
C    -1.58122   0.48178   0.09504
C    -1.52878  -0.77438   0.74132
C    -2.64402  -1.60877   0.76881
C    -3.84199  -1.21407   0.15978
C    -3.90987   0.03003  -0.47476
C    -2.79661   0.87172  -0.50486
C     0.74211   0.25889  -2.01546
C    -0.36623  -0.62791  -2.50768
C     1.89961  -0.22707  -1.43091
C     2.17074  -1.70354  -1.26403
H     4.58174   0.21059   2.53857
H     4.51402   0.48699   0.76552
H     3.78474   1.68458   1.85520
H     0.52404   3.19426  -0.55042
H    -1.08012   3.37083   0.21951
H    -0.95936   2.80681  -1.45977
H    -0.60549  -1.09420   1.22776
H    -2.57978  -2.57582   1.27356
H    -4.71544  -1.86962   0.18431
H    -4.83945   0.35167  -0.95070
H    -2.87133   1.83559  -1.00923
H     0.76048   1.28222  -2.39904
H    -0.08494  -1.13767  -3.44955
H    -0.62077  -1.41855  -1.78452
H    -1.28566  -0.05870  -2.70825
H     2.78542   0.41569  -1.47244
H     1.31341  -2.23110  -0.81812
H     3.04630  -1.88716  -0.62367
H     2.37071  -2.18000  -2.24144
