32
Generated by autodE on: 2022-06-05. E = -1227.740516 Ha
C    -0.96006  -1.75906   3.47829
O    -0.56368  -1.20072   2.21223
C    -1.46570  -0.47210   1.57010
O    -2.59108  -0.25748   1.96789
C    -0.92136   0.13934   0.27468
C    -2.07988   0.10030  -0.74217
O    -2.68152   1.07110  -1.13815
O    -2.33615  -1.14967  -1.11606
C    -3.41393  -1.34324  -2.04868
C     0.25633  -0.52466  -0.27484
C     1.34256  -0.61632  -0.80419
C     2.60676  -0.16841  -1.35466
Cl    3.94537  -0.45896  -0.11275
C     2.47829   1.33434  -1.65956
C     1.83826   2.19804  -0.55453
C     0.28892   2.33398  -0.53004
C    -0.49577   1.61153   0.58411
H    -1.22169  -0.95550   4.18099
H    -1.82060  -2.42925   3.34394
H    -0.09175  -2.31894   3.84285
H    -3.46000  -2.42198  -2.23471
H    -4.35918  -0.98839  -1.61413
H    -3.20926  -0.80142  -2.98283
H     2.93263  -0.72765  -2.23995
H     3.48680   1.70682  -1.89530
H     1.88556   1.41571  -2.58678
H     2.24888   3.21053  -0.68633
H     2.20580   1.85921   0.42867
H    -0.13019   2.06655  -1.51350
H     0.06045   3.40280  -0.39897
H     0.10615   1.59010   1.50562
H    -1.41997   2.16136   0.81066
