15
Generated by autodE on: 2022-06-05. E = -661.547914 Ha
C     3.98854   0.05192  -0.12419
O     2.55786   0.21544  -0.22885
C     1.81618  -0.63073   0.45299
O     2.18054  -1.53836   1.15984
C     0.35956  -0.33798   0.25721
O    -0.56500  -1.01390   0.83031
C    -1.89924  -0.42887   0.39905
O    -2.91536  -0.90411   0.81483
C    -1.46311   0.60289  -0.44786
C    -2.18887   1.54011  -1.18626
N    -2.81754   2.31276  -1.79447
O    -0.07055   0.61350  -0.49777
H     4.27647  -0.94348  -0.48959
H     4.30040   0.17294   0.92233
H     4.42203   0.83673  -0.75239
