47
Generated by autodE on: 2022-06-05. E = -1889.289613 Ha. Imaginary frequency = -298.8 cm-1
C     1.97585  -0.46819  -5.01382
O     1.09156  -0.43672  -3.87525
C     1.21205  -1.42047  -3.00659
O     1.93910  -2.37957  -3.07703
C     0.24816  -1.22746  -1.86592
O    -1.02533  -0.93700  -2.13379
C    -1.80552  -1.31055  -1.00258
O    -2.98979  -1.10488  -0.95343
C    -0.82515  -1.90530  -0.13598
C    -0.99328  -2.63237   1.05559
N    -1.14052  -3.24486   2.03447
O     0.34077  -2.04222  -0.83160
C    -0.06503   0.59971   0.22607
C     0.77421   0.58468  -0.68575
C     1.90856   1.30271  -1.29294
Cl    3.33307   0.16221  -1.55302
C     2.40741   2.44961  -0.41069
C     1.36024   3.51236  -0.03865
C     0.64882   3.35959   1.32279
C    -0.72706   2.68882   1.34782
C    -0.76966   1.13115   1.40076
C    -2.26623   0.72508   1.42636
O    -3.13862   1.33722   0.85912
O    -2.45285  -0.36693   2.15118
C    -3.79313  -0.87902   2.26872
C    -0.08469   0.58806   2.67007
O     0.76921  -0.26979   2.67422
O    -0.55107   1.19031   3.75663
C    -0.02908   0.74453   5.02019
H     1.82626  -1.39629  -5.58170
H     3.01704  -0.39911  -4.66914
H     1.71080   0.40468  -5.61918
H     1.64242   1.64831  -2.30042
H     3.23339   2.92175  -0.96273
H     2.83867   2.01431   0.50429
H     1.89780   4.47215  -0.01093
H     0.61422   3.61574  -0.84540
H     0.48019   4.37495   1.71327
H     1.32792   2.87792   2.04770
H    -1.31199   2.99074   0.46807
H    -1.28058   3.03056   2.23386
H    -4.44148  -0.12397   2.73433
H    -4.17542  -1.14943   1.27663
H    -3.71479  -1.76583   2.90654
H    -0.24908  -0.32299   5.16256
H     1.05681   0.90857   5.06139
H    -0.53599   1.34567   5.78306
