49
Generated by autodE on: 2022-06-05. E = -2172.541794 Ha
C    -2.57104   4.32275  -0.65152
N    -1.94321   3.10961  -0.16254
C    -0.65326   2.83997  -0.37522
O     0.09405   3.60090  -1.00936
C    -0.10969   1.57933   0.30386
N    -1.14903   0.72322   0.88843
C    -0.98250  -0.66863   0.49937
C    -1.97065  -1.09966  -0.62196
O    -1.98019  -2.25515  -1.06209
N    -2.83848  -0.16335  -1.01080
C    -3.74428  -0.36932  -2.12076
C    -1.20589  -1.56493   1.75377
O    -1.16052  -1.05764   2.87837
N    -1.36235  -2.86767   1.52336
C    -1.39635  -3.83315   2.60477
C     0.54846  -0.73624   0.06676
Cl    0.96048  -2.09413  -1.03602
C     1.40896  -0.83095   1.36649
O     1.63958   0.18276   2.02718
N     1.77208  -2.05377   1.76392
C     2.32801  -2.27368   3.08628
C     0.77097   0.65992  -0.58141
Cl    0.14247   0.64338  -2.30207
C     2.27264   1.01973  -0.68288
O     3.13021   0.13752  -0.60508
N     2.54243   2.31161  -0.87709
C     3.90494   2.77402  -1.05179
H    -2.43188   4.41913  -1.73845
H    -2.14144   5.21603  -0.17051
H    -3.64409   4.27938  -0.43078
H    -2.46019   2.46487   0.42920
H     0.54412   1.95513   1.10314
H    -1.11206   0.75759   1.90853
H    -2.70877   0.76731  -0.63252
H    -4.20654  -1.36366  -2.05303
H    -3.21423  -0.29930  -3.08605
H    -4.52968   0.39627  -2.09194
H    -1.43980  -3.15805   0.54656
H    -0.43913  -3.84199   3.15103
H    -2.19825  -3.59875   3.32135
H    -1.57483  -4.82965   2.18354
H     1.52239  -2.85367   1.19298
H     2.50815  -3.34713   3.21725
H     1.62814  -1.92594   3.86263
H     3.27865  -1.73339   3.21062
H     1.74901   2.96099  -0.98410
H     4.53948   2.44876  -0.21329
H     4.34896   2.38410  -1.98273
H     3.90474   3.87017  -1.09287
