29
Generated by autodE on: 2022-07-27. E = -758.357575 Ha
C     0.32049   4.43602  -2.17476
N     1.07053   3.29858  -1.68340
C     0.48501   2.32224  -0.96091
O    -0.74089   2.34970  -0.71019
C     1.40669   1.30987  -0.45262
N     1.15384   0.18954   0.20461
C     0.19947  -0.72136   0.52227
C    -1.09243  -0.99023  -0.13070
O    -1.75546  -2.01147   0.17578
N    -1.50921  -0.17931  -1.12507
C    -2.77931  -0.43965  -1.77364
C     0.80552  -1.68664   1.49091
O     1.99279  -1.50508   1.85442
N     0.06600  -2.70041   1.95173
C     0.60443  -3.68095   2.86918
H    -0.54531   4.10778  -2.77015
H    -0.05594   5.06149  -1.34842
H     0.97649   5.04559  -2.80749
H     2.07215   3.26230  -1.84316
H     2.46818   1.56335  -0.47251
H     2.00274  -0.16827   0.70536
H    -1.21506   0.80760  -1.07317
H    -2.93051   0.30937  -2.56187
H    -3.62925  -0.38871  -1.07063
H    -2.78811  -1.43964  -2.23178
H    -0.84877  -2.80579   1.50271
H     1.04215  -3.19456   3.75450
H     1.39244  -4.29512   2.40093
H    -0.20605  -4.34394   3.19676
