35
Generated by autodE on: 2022-06-17. E = -787.385989 Ha
C    -2.68621   2.06741  -0.70961
C    -1.60386   1.19273  -0.08871
C    -0.91198   1.99156   0.96258
N    -0.35844   2.63480   1.75390
O    -0.65261   0.85154  -1.09242
C     0.00946  -0.38489  -0.77691
C     1.50499  -0.19729  -0.62339
C     2.07922   1.07714  -0.53750
C     3.46053   1.22211  -0.36946
C     4.28358   0.09597  -0.28913
C     3.71637  -1.17990  -0.38420
C     2.33793  -1.32569  -0.55325
C    -0.69405  -0.91794   0.48640
C    -0.83346  -2.41052   0.56761
O    -0.41732  -3.19861  -0.25721
C    -2.06866  -0.17872   0.50397
C    -2.67420  -0.07164   1.90180
C    -3.06405  -0.85367  -0.45041
H    -3.46516   2.29469   0.03194
H    -2.24697   3.01167  -1.06136
H    -3.13581   1.54880  -1.56518
H    -0.17712  -1.07798  -1.61251
H     1.44310   1.95923  -0.61020
H     3.89369   2.22329  -0.30363
H     5.36232   0.21022  -0.15834
H     4.35187  -2.06733  -0.33114
H     1.89996  -2.32249  -0.63453
H    -0.13619  -0.61966   1.39180
H    -1.36632  -2.77362   1.47706
H    -3.56942   0.56912   1.88458
H    -2.98079  -1.06654   2.25713
H    -1.96169   0.34340   2.62919
H    -3.27218  -1.87886  -0.10903
H    -4.02100  -0.31368  -0.46342
H    -2.68166  -0.90803  -1.47978
