21
Generated by autodE on: 2022-07-27. E = -516.594598 Ha
C    -3.46332   1.33029  -0.81508
C    -2.19231   0.75148  -0.28666
C    -1.59622   1.14069   0.90690
N    -1.10734   1.45087   1.93144
O    -1.78204  -0.37013  -0.91934
C    -0.69965  -1.08972  -0.88114
C     0.59417  -0.76820  -0.34997
C     1.08929   0.54579  -0.14653
C     2.41294   0.74307   0.24286
C     3.26224  -0.34508   0.46751
C     2.78910  -1.64958   0.26456
C     1.48105  -1.85979  -0.15218
H    -3.82233   2.11941  -0.13997
H    -3.33174   1.77548  -1.81715
H    -4.25010   0.55885  -0.89321
H    -0.84350  -2.04436  -1.39235
H     0.46075   1.41186  -0.34088
H     2.78332   1.76184   0.37747
H     4.29190  -0.17927   0.79207
H     3.45032  -2.50356   0.42779
H     1.11725  -2.87501  -0.32683
