14
Generated by autodE on: 2022-06-17. E = -270.683222 Ha
C    -0.91717   1.29338   0.11370
C    -0.83908  -0.20642   0.12699
C    -2.13283  -0.93237   0.32046
C     0.32283  -0.89880  -0.02758
C     1.64213  -0.31759  -0.22620
O     1.91513   0.87838  -0.30076
H    -0.24812   1.73180   0.87042
H    -0.57829   1.69342  -0.85566
H    -1.94376   1.63924   0.29848
H    -2.59652  -0.62518   1.27443
H    -2.01256  -2.02442   0.31339
H    -2.84699  -0.64157  -0.47007
H     0.29297  -1.99208  -0.00359
H     2.46164  -1.07148  -0.31595
