35
Generated by autodE on: 2022-06-17. E = -787.287540 Ha. Imaginary frequency = -226.0 cm-1
C    -2.43150   2.05598  -0.90819
C    -1.24800   1.29161  -0.41347
C    -0.48420   1.81519   0.65180
N     0.05603   2.25493   1.59107
O    -0.71467   0.44686  -1.31920
C     0.30924  -0.36712  -1.22688
C     1.61121  -0.05444  -0.65403
C     2.11435   1.26275  -0.59362
C     3.41153   1.50126  -0.14002
C     4.22805   0.43996   0.26167
C     3.74709  -0.87336   0.18241
C     2.45770  -1.12092  -0.27988
C    -1.00880  -1.42809   0.76969
C    -0.90154  -2.55592  -0.13010
O    -1.74194  -2.96132  -0.93996
C    -2.12816  -0.62171   0.94854
C    -2.31022   0.10715   2.25034
C    -3.37480  -0.79917   0.12689
H    -3.05834   2.36916  -0.06055
H    -2.13143   2.96430  -1.46051
H    -3.02850   1.42386  -1.57991
H     0.24356  -1.16803  -1.96573
H     1.50629   2.09877  -0.93889
H     3.78784   2.52614  -0.10610
H     5.24003   0.63290   0.62471
H     4.38371  -1.70901   0.48175
H     2.08755  -2.14568  -0.34403
H    -0.17762  -1.31834   1.47119
H     0.05529  -3.11992  -0.01609
H    -2.82352   1.07113   2.11403
H    -2.95648  -0.50790   2.90295
H    -1.36071   0.27398   2.77531
H    -3.88583  -1.72801   0.43733
H    -4.07401   0.03315   0.28712
H    -3.16000  -0.90203  -0.94328
