27
Generated by autodE on: 2022-06-16. E = -611.601981 Ha
C     3.28541   0.88188   0.69274
C     2.26460   0.17557  -0.16057
O     2.58222  -0.37867  -1.22256
C     0.88491   0.12409   0.27129
N     0.42472   0.71031   1.34814
N    -0.85967   0.46189   1.49283
C    -1.62725   1.24540   2.43885
C    -1.47093  -0.14482   0.26202
C    -2.45030  -1.25926   0.60286
C    -2.15918   0.95949  -0.55148
C    -0.17677  -0.69366  -0.42523
C    -0.16131  -0.57426  -1.92779
O    -0.36466  -1.51042  -2.67436
H     2.83257   1.63249   1.35215
H     3.79092   0.13131   1.32455
H     4.04645   1.34311   0.04743
H    -1.88096   2.24441   2.04433
H    -2.55671   0.71421   2.68230
H    -1.03946   1.36681   3.35805
H    -2.77704  -1.74837  -0.32735
H    -1.97852  -2.01583   1.24647
H    -3.34281  -0.86369   1.11048
H    -1.46542   1.77898  -0.79053
H    -2.54896   0.54514  -1.49347
H    -3.01118   1.37152   0.00803
H    -0.05495  -1.76401  -0.18563
H     0.02460   0.44756  -2.33009
