14
Generated by autodE on: 2022-06-16. E = -270.683209 Ha
C    -1.34309   0.78972   0.29985
C    -0.70470  -0.47793  -0.19124
C    -1.63842  -1.56587  -0.61854
C     0.64260  -0.66130  -0.25648
C     1.65241   0.31290   0.12859
O     1.45225   1.44066   0.57409
H    -1.04180   1.00418   1.33761
H    -1.00990   1.65496  -0.29459
H    -2.43925   0.72563   0.25426
H    -1.11159  -2.46597  -0.96412
H    -2.30674  -1.83619   0.21799
H    -2.29715  -1.19940  -1.42554
H     1.02917  -1.61503  -0.62734
H     2.70283  -0.04102  -0.01048
