13
Generated by autodE on: 2022-06-16. E = -340.827143 Ha
C     2.86004   0.58017   0.83030
N     2.16331  -0.30826  -0.10521
N     0.94603  -0.36066   0.03501
C    -0.23083  -0.53665   0.16887
C    -1.52855  -0.05525  -0.28296
C    -2.17424   0.97450   0.60228
O    -2.05169  -0.52133  -1.28677
H     3.93280   0.36325   0.77502
H     2.50769   0.43206   1.86410
H     2.70065   1.63551   0.55412
H    -1.48132   1.81009   0.78917
H    -2.41183   0.51968   1.57803
H    -3.09649   1.33780   0.12910
