27
Generated by autodE on: 2022-06-16. E = -611.505038 Ha. Imaginary frequency = -302.6 cm-1
C     3.41766   0.82893   0.69400
C     2.38223  -0.11615   0.14497
O     2.65145  -1.12013  -0.50311
C     0.99758   0.26476   0.36902
N     0.24521   0.57824   1.27988
N    -0.91940   0.44640   1.68631
C    -1.52151   1.53344   2.44263
C    -1.86836  -0.46496  -0.25788
C    -2.61422  -1.54283   0.47838
C    -2.66603   0.77013  -0.59156
C    -0.69241  -0.79642  -0.92399
C    -0.12576  -0.03135  -2.02163
O     0.71463  -0.46505  -2.80893
H     3.31885   1.80939   0.20067
H     3.25890   0.98519   1.77249
H     4.41899   0.41769   0.50865
H    -1.52517   2.47337   1.86524
H    -2.55430   1.24936   2.67826
H    -0.98079   1.70252   3.38823
H    -3.36046  -1.99384  -0.20146
H    -1.94296  -2.34282   0.82175
H    -3.16499  -1.13886   1.34000
H    -2.03757   1.64085  -0.82074
H    -3.30105   0.57276  -1.47342
H    -3.33807   1.03467   0.23669
H    -0.28163  -1.80349  -0.79840
H    -0.50812   1.00743  -2.14311
