17
Generated by autodE on: 2022-06-16. E = -435.368854 Ha
C     3.00408   0.42099   0.72762
C     1.63144  -0.02254   0.36727
N     0.70917   0.80033   0.01131
C    -0.52995   0.01471  -0.22627
C    -1.43975   0.22077   0.91997
N    -2.11973   0.36675   1.84732
C    -1.20388   0.48981  -1.44669
N    -1.70759   0.85203  -2.42548
C    -0.09339  -1.48202  -0.33662
C     1.22747  -1.47354   0.43441
H     3.10659   1.51198   0.66704
H     3.73558  -0.05855   0.05649
H     3.24326   0.08275   1.74946
H     0.07539  -1.71136  -1.39708
H    -0.85591  -2.16428   0.05711
H     1.09968  -1.75092   1.49511
H     1.99189  -2.13958   0.00972
