11
Generated by autodE on: 2022-06-16. E = -356.653532 Ha
C     3.38113   0.02794  -0.40552
C     1.95223   0.01677  -0.22983
N     0.80097   0.01019  -0.09409
C    -0.54944  -0.00373   0.06660
C    -1.27064   1.19464  -0.10035
N    -1.87940   2.18402  -0.23668
C    -1.18599  -1.21684   0.39442
N    -1.72515  -2.21845   0.66670
H     3.68341  -0.85977  -0.98368
H     3.64831   0.93063  -0.97903
H     3.89571   0.04216   0.56753
