17
Generated by autodE on: 2022-06-16. E = -435.270537 Ha. Imaginary frequency = -399.1 cm-1
C     3.06586   0.47650   0.81250
C     1.67505   0.24139   0.44371
N     0.62425   0.76871   0.20538
C    -0.66387   0.52691  -0.13921
C    -1.65248   0.48594   0.87404
N    -2.46750   0.42791   1.70821
C    -1.04306   0.62152  -1.50047
N    -1.35591   0.67486  -2.62420
C    -0.02160  -2.04327  -0.12292
C     1.29497  -1.91924   0.21895
H     3.26551   1.55212   0.92898
H     3.71709   0.04985   0.03394
H     3.28008  -0.05551   1.75233
H    -0.33675  -2.09623  -1.16772
H    -0.79447  -2.20019   0.63332
H     1.61594  -2.08712   1.25200
H     2.07357  -1.98179  -0.54798
