35
Generated by autodE on: 2022-10-20. E = -1354.483145 Ha
C     4.49562  -0.82631  -0.35476
O     3.09684  -1.07371  -0.15769
C     2.31060   0.00706  -0.11553
O     2.70742   1.15719  -0.20735
N     0.99536  -0.32637   0.06045
N     0.54650  -1.67017   0.21804
C     0.56229  -2.06952   1.63113
N    -0.76816  -1.65318  -0.31520
C    -0.79874  -2.20614  -1.66544
C    -1.33902  -0.32461  -0.06754
O    -2.21211  -0.31958   1.02321
C    -3.38866  -1.09492   0.83521
C    -1.91225   0.39663  -1.34305
C    -2.48562   1.72604  -0.87614
C    -1.42858   2.50885  -0.63568
C    -0.21110   1.64878  -0.94855
O    -0.69439   0.79686  -1.99062
C    -0.07549   0.60093   0.20110
Cl   -0.05206   1.42139   1.83349
H     4.66799  -0.31663  -1.31368
H     4.89981  -0.21471   0.46464
H     4.97410  -1.81249  -0.36087
H    -0.09026  -1.44960   2.26618
H     0.23667  -3.11658   1.68920
H     1.59731  -2.00371   1.99386
H    -0.21944  -1.61731  -2.39620
H    -0.39060  -3.22462  -1.62513
H    -1.83922  -2.27798  -2.00752
H    -3.14387  -2.14282   0.59951
H    -4.02464  -0.68544   0.03140
H    -3.94625  -1.05860   1.78063
H    -2.53216  -0.21770  -2.00018
H    -3.54317   1.92990  -0.71323
H    -1.39669   3.51805  -0.22874
H     0.72606   2.14049  -1.21872
