18
Generated by autodE on: 2022-10-20. E = -472.704667 Ha
C    -2.60216   1.48759   0.21252
N    -2.47551   0.05298   0.21818
N    -1.28876  -0.38398   0.15745
C    -1.17334  -1.86503   0.16264
N    -0.25380   0.43222   0.16602
C     0.98356  -0.05233  -0.16936
O     1.29092  -1.08731  -0.74675
O     1.90658   0.86519   0.19745
C     3.26115   0.56590  -0.14444
H    -2.09531   1.93391   1.08555
H    -3.66963   1.73582   0.23745
H    -2.13183   1.93268  -0.68063
H    -0.87536  -2.20243  -0.83462
H    -0.41197  -2.16000   0.89240
H    -2.15723  -2.25434   0.43537
H     3.85894   1.41172   0.21681
H     3.37849   0.46249  -1.23384
H     3.59430  -0.36294   0.34270
