17
Generated by autodE on: 2022-10-20. E = -881.716874 Ha
C     2.59652   0.83186  -0.86931
O     1.48408   0.16666  -1.47547
C     0.45914  -0.18832  -0.69704
C     0.13203  -0.09583   0.60601
Cl    0.89973   0.64962   1.96786
C    -1.32193  -0.61953   0.67859
C    -2.22796   0.40550  -0.04598
C    -1.89522   0.30160  -1.33603
C    -0.79955  -0.78939  -1.36841
O    -1.25986  -1.65732  -0.31858
H     3.32085   1.01359  -1.67308
H     2.28458   1.78994  -0.42746
H     3.05472   0.19820  -0.09491
H    -1.64961  -0.99116   1.65561
H    -2.92625   1.08345   0.44368
H    -2.24056   0.87026  -2.19850
H    -0.62275  -1.31549  -2.31310
