35
Generated by autodE on: 2022-10-20. E = -1354.389596 Ha. Imaginary frequency = -343.3 cm-1
C     4.62936  -1.04089   0.24188
O     3.23778  -1.33403   0.06487
C     2.44205  -0.28669  -0.23025
O     2.85764   0.85408  -0.36577
N     1.13222  -0.61874  -0.45123
N     0.55811  -1.68351   0.09732
C     0.72520  -1.95672   1.53665
N    -0.61147  -2.02336  -0.36897
C    -0.72431  -2.05411  -1.81531
C    -1.53249   0.04238   0.11886
O    -2.19048  -0.26814   1.26225
C    -3.28474  -1.17248   1.13381
C    -2.27790   0.56679  -1.13652
C    -2.78156   1.97761  -0.75236
C    -1.68214   2.73894  -0.70862
C    -0.51901   1.78059  -1.05922
O    -1.16783   0.89917  -1.98179
C    -0.36991   0.83230   0.13669
Cl    0.26612   1.48178   1.62617
H     5.05409  -0.60700  -0.67505
H     4.77541  -0.34191   1.07826
H     5.11249  -2.00000   0.46337
H    -0.00464  -1.36119   2.10125
H     0.54066  -3.02345   1.70628
H     1.74116  -1.69962   1.84786
H    -0.32961  -1.16862  -2.32473
H    -0.18520  -2.94764  -2.18022
H    -1.78477  -2.17758  -2.06824
H    -2.94551  -2.11669   0.68219
H    -4.09434  -0.73945   0.52368
H    -3.66071  -1.35682   2.14854
H    -2.98061  -0.11019  -1.63134
H    -3.81575   2.23567  -0.52737
H    -1.57344   3.78817  -0.43728
H     0.40541   2.20614  -1.46245
