60
Generated by autodE on: 2022-06-26. E = -1380.815966 Ha
C     3.63493  -3.49886  -2.31923
C     3.02503  -2.95934  -1.24436
C     3.47945  -3.25839   0.16021
C     1.89507  -2.04225  -1.43019
C     1.20059  -1.45948  -0.43664
C     0.07303  -0.50878  -0.66813
C     0.25049   0.91309   0.00521
C     0.53193   1.98395  -1.06851
O     0.00903   3.08134  -1.05910
O     1.40140   1.59392  -1.99268
C     1.73403   2.54266  -3.02043
C     1.38169   0.97686   1.04620
C     1.08539   1.01568   2.41438
C     2.10847   1.01167   3.36799
C     3.44606   0.96978   2.96751
C     3.75156   0.93697   1.60318
C     2.72965   0.94248   0.65105
N    -1.04884   1.19727   0.61288
C    -2.07927   0.35129   0.01413
C    -3.30718   0.17605   0.91479
O    -4.31344  -0.39821   0.48109
N    -3.18860   0.65498   2.15756
C    -4.20172   0.45522   3.17256
C    -2.51912   1.03900  -1.29154
O    -2.03781   0.86591  -2.39298
O    -3.40615   2.00287  -1.03224
C    -3.73730   2.88991  -2.11257
C    -1.32414  -1.00730  -0.17523
C    -1.97244  -1.95740  -1.18243
C    -1.21826  -1.73478   1.17637
H     3.29822  -3.26947  -3.33492
H     4.48339  -4.18067  -2.21266
H     4.33768  -3.94504   0.16449
H     3.76970  -2.33265   0.68516
H     2.66784  -3.71326   0.75209
H     1.62422  -1.81406  -2.46768
H     1.46593  -1.66935   0.60066
H    -0.01602  -0.34734  -1.74624
H     2.46109   2.04038  -3.66811
H     2.17472   3.44645  -2.57689
H     0.83307   2.80983  -3.59033
H     0.04333   1.04189   2.73051
H     1.85433   1.03981   4.43038
H     4.24568   0.96445   3.71203
H     4.79295   0.90516   1.27414
H     2.98616   0.90611  -0.40661
H    -1.27001   2.19161   0.56116
H    -2.27374   1.02352   2.40732
H    -4.14345  -0.55427   3.61421
H    -5.20132   0.57860   2.73357
H    -4.06837   1.19581   3.97153
H    -4.47082   3.59636  -1.70795
H    -4.17008   2.32868  -2.95248
H    -2.83608   3.42318  -2.44813
H    -1.35390  -2.86334  -1.27612
H    -2.06968  -1.50654  -2.17736
H    -2.97135  -2.26078  -0.83757
H    -2.21204  -2.04486   1.53091
H    -0.74563  -1.11827   1.95193
H    -0.61958  -2.64839   1.05621
