23
Generated by autodE on: 2022-06-26. E = -351.521385 Ha
C     3.70132   0.52784  -0.56641
C     2.58257   0.11806   0.07099
C     2.65281  -0.59331   1.39803
C     1.27130   0.36140  -0.52681
C     0.07836  -0.00025   0.00887
C    -1.19544   0.26565  -0.62791
C    -2.42705  -0.06003  -0.16026
C    -2.68173  -0.77259   1.13765
C    -3.66240   0.28523  -0.94291
H     3.64684   1.04402  -1.52988
H     4.69487   0.35867  -0.14200
H     2.09936  -0.04050   2.17524
H     3.69322  -0.71077   1.73243
H     2.19348  -1.59396   1.33709
H     1.27413   0.88268  -1.49169
H     0.06762  -0.52040   0.97051
H    -1.14286   0.78700  -1.59141
H    -3.22779  -1.71503   0.95496
H    -1.76875  -1.00979   1.69876
H    -3.33481  -0.16234   1.78627
H    -4.33544   0.92888  -0.34826
H    -3.42727   0.80335  -1.88421
H    -4.24254  -0.62471  -1.18022
