37
Generated by autodE on: 2022-06-26. E = -1029.254576 Ha
C     3.65123   2.78052  -0.98260
N     3.18432   1.61340  -0.26600
C     1.91979   1.16226  -0.41167
O     1.07287   1.79564  -1.07722
C     1.58670  -0.11900   0.21960
N     0.29791  -0.59493   0.14958
C    -0.86532   0.01240   0.02078
C    -0.96004   1.47644   0.32094
O    -0.45788   1.97817   1.30669
O    -1.75197   2.11630  -0.53244
C    -1.93758   3.52090  -0.29988
C    -2.06288  -0.78225  -0.24556
C    -1.96730  -2.02763  -0.90368
C    -3.10271  -2.80995  -1.10805
C    -4.35440  -2.36270  -0.67327
C    -4.46353  -1.12382  -0.03119
C    -3.33357  -0.33769   0.18118
C     2.57708  -1.05687   0.69410
O     3.78781  -0.84682   0.78800
O     2.03646  -2.24820   1.04907
C     2.94037  -3.27358   1.47105
H     2.96946   3.62963  -0.82684
H     4.64565   3.05423  -0.60765
H     3.72360   2.60444  -2.07020
H     3.84917   0.97111   0.16404
H     0.25071  -1.61779   0.21138
H    -2.60608   3.87206  -1.09384
H    -2.39262   3.69090   0.68627
H    -0.97031   4.04024  -0.35587
H    -1.00599  -2.37311  -1.29003
H    -3.01084  -3.76719  -1.62578
H    -5.24420  -2.97323  -0.84196
H    -5.43769  -0.76888   0.31207
H    -3.43614   0.61750   0.69743
H     3.64570  -3.52805   0.66614
H     3.50327  -2.95253   2.35958
H     2.31829  -4.14300   1.71441
