37
Generated by autodE on: 2022-07-28. E = -1029.254788 Ha
C    -3.75074  -2.29021   2.80009
N    -3.21319  -1.48105   1.72678
C    -1.88885  -1.31219   1.57242
O    -1.06342  -1.87454   2.32922
C    -1.38053  -0.44797   0.48702
N    -0.01087  -0.41052   0.51751
C     0.92163   0.05726  -0.28580
C     0.57578   0.37199  -1.70738
O    -0.05923  -0.38578  -2.41196
O     1.12507   1.50756  -2.12326
C     0.89745   1.86322  -3.49638
C     2.30988   0.09959   0.17414
C     2.60956   0.16396   1.55229
C     3.93249   0.15484   1.99115
C     4.98193   0.09588   1.06830
C     4.69758   0.04604  -0.30094
C     3.37805   0.04854  -0.74771
C    -2.10820   0.51477  -0.30136
O    -1.59677   1.43703  -0.93384
O    -3.45040   0.34348  -0.27057
C    -4.24341   1.32505  -0.94819
H    -4.84199  -2.33305   2.69683
H    -3.50752  -1.87138   3.79073
H    -3.35272  -3.31655   2.76410
H    -3.83301  -0.97192   1.10450
H     0.30657  -0.89538   1.37651
H     1.30602   1.09175  -4.16452
H    -0.18003   1.97923  -3.68029
H     1.41674   2.81558  -3.65087
H     1.80651   0.25287   2.28706
H     4.14489   0.21094   3.06105
H     6.01792   0.09712   1.41415
H     5.51129  -0.00097  -1.02802
H     3.17651  -0.00633  -1.81825
H    -4.08606   2.32209  -0.51152
H    -5.28585   1.01433  -0.81197
H    -3.99308   1.35251  -2.01845
