31
Generated by autodE on: 2022-05-28. E = -730.047974 Ha
C     3.82405   1.13386   0.63973
O     2.77755   0.15758   0.76698
C     1.52660   0.58856   0.60772
O     1.24114   1.74799   0.39773
C     0.51424  -0.56710   0.67423
C     0.83347  -1.53297   1.81728
O    -0.78552  -0.01255   0.86598
C    -1.66803  -0.35431  -0.21418
C    -2.83995  -1.18431   0.32461
C    -2.24925   0.90777  -0.87981
C    -2.05874   2.22203  -0.19032
O    -2.86472   0.78583  -1.92655
C    -0.79054  -1.11236  -1.17406
C     0.44747  -1.24805  -0.69204
C     1.61490  -1.94667  -1.30337
H     4.76336   0.59003   0.79060
H     3.71014   1.91771   1.40181
H     3.80198   1.58793  -0.36123
H     0.08061  -2.33403   1.82673
H     0.79989  -1.00014   2.77941
H     1.82876  -1.97958   1.69702
H    -3.52219  -1.45301  -0.49432
H    -3.40031  -0.60907   1.07786
H    -2.45492  -2.10327   0.78993
H    -0.98272   2.44153  -0.12087
H    -2.42872   2.15739   0.84558
H    -2.58537   3.01463  -0.73756
H    -1.16350  -1.49784  -2.12286
H     2.45062  -1.24958  -1.47725
H     1.99508  -2.73708  -0.63531
H     1.33735  -2.40505  -2.26285
