24
Generated by autodE on: 2022-05-28. E = -613.208415 Ha
C     3.02339   1.84786  -0.20339
O     1.82701   1.06751  -0.11510
C     1.98885  -0.25289   0.09264
O     3.09031  -0.77870   0.20289
C     0.73334  -0.99469   0.17191
C     0.71557  -2.46420   0.40082
O    -0.32631  -0.24548   0.02973
C    -1.62813  -0.41413   0.01862
C    -2.31291  -1.72363   0.18947
C    -2.35102   0.83074  -0.18859
C    -1.55106   2.10352  -0.35407
O    -3.58887   0.83815  -0.22643
H     3.60308   1.78013   0.72920
H     2.69789   2.88157  -0.36937
H     3.64851   1.50967  -1.04318
H     1.75299  -2.81348   0.46023
H     0.20858  -2.72641   1.34236
H     0.21510  -3.00264  -0.41798
H    -2.05836  -2.43229  -0.61364
H    -3.39311  -1.53628   0.15410
H    -2.07324  -2.19691   1.15340
H    -2.24522   2.94055  -0.50253
H    -0.92693   2.29304   0.53278
H    -0.86900   2.03033  -1.21498
