31
Generated by autodE on: 2022-05-28. E = -729.915732 Ha. Imaginary frequency = -374.4 cm-1
C     3.98292   0.77652   0.80812
O     2.79382   0.01768   1.04891
C     1.63172   0.59541   0.69716
O     1.56602   1.73082   0.24412
C     0.49370  -0.31606   0.85532
C     0.55920  -1.58783   1.64308
O    -0.63234   0.31028   0.56989
C    -1.79486  -0.15833   0.15700
C    -2.46569  -1.37318   0.71087
C    -2.58031   0.86519  -0.54808
C    -1.93191   2.20301  -0.80426
O    -3.71162   0.59912  -0.96071
C    -0.76358  -1.14541  -1.71106
C     0.44392  -1.26452  -1.48175
C     1.86914  -1.58847  -1.58993
H     4.81801   0.13879   1.12073
H     3.97622   1.70589   1.39631
H     4.07507   1.02476  -0.25955
H     0.36898  -2.48395   1.03552
H    -0.18043  -1.56545   2.45853
H     1.55538  -1.68829   2.08828
H    -3.33977  -1.58967   0.08404
H    -2.82917  -1.17440   1.73477
H    -1.82094  -2.25662   0.73535
H    -0.96091   2.07638  -1.30486
H    -1.73245   2.72024   0.14764
H    -2.60093   2.81385  -1.42375
H    -1.71938  -1.21606  -2.20588
H     2.47771  -0.67415  -1.67192
H     2.22786  -2.14704  -0.71240
H     2.05532  -2.20125  -2.48761
