28
Generated by autodE on: 2022-10-06. E = -1039.964932 Ha
C     3.31378  -1.59900   1.97608
N     2.22504  -0.88798   1.33713
C     1.52703  -1.44941   0.34715
O     1.72371  -2.59681  -0.07312
C     0.44416  -0.58136  -0.27831
C     0.83335   0.03777  -1.61924
O     1.90414   0.32080  -2.08611
O    -0.34444   0.25485  -2.26847
N    -1.42030  -0.23767  -1.37297
C    -1.48121   0.80908  -0.29720
C    -2.79694   0.75666   0.51592
O    -2.73593   1.31203   1.64153
O    -3.80134   0.22608  -0.01229
C    -0.19985   0.60112   0.52773
C     0.71913   1.83844   0.64842
O     0.57571   2.76853  -0.17404
O     1.58715   1.79207   1.57046
N    -0.71486  -1.34539  -0.78807
C    -1.50203  -2.10699   0.16957
H     2.96570  -2.54784   2.41372
H     4.11828  -1.83598   1.26041
H     3.72666  -0.97135   2.77563
H     2.03788   0.10286   1.58227
H    -1.45412   1.78548  -0.79720
H    -0.43037   0.24602   1.53910
H    -1.73662  -1.56823   1.10313
H    -2.44320  -2.40377  -0.31022
H    -0.93277  -3.01107   0.42305
