18
Generated by autodE on: 2022-10-06. E = -584.904347 Ha
C     3.50294   0.00040   0.26174
N     2.09727   0.34352   0.20603
C     1.13175  -0.58556   0.06243
O     1.34541  -1.80227   0.00755
C    -0.22576  -0.02152  -0.01582
C    -0.62728   1.33922   0.01176
O    -0.05614   2.38801   0.10183
O    -2.02602   1.27144  -0.10299
N    -2.44375  -0.01126  -0.19176
N    -1.37403  -0.73470  -0.13896
C    -1.52841  -2.18883  -0.21239
H     3.62455  -0.99133   0.71608
H     3.96252  -0.02126  -0.74126
H     4.03631   0.74108   0.87242
H     1.82458   1.32518   0.18898
H    -0.97402  -2.55878  -1.08154
H    -1.12070  -2.63327   0.70194
H    -2.59947  -2.39549  -0.30883
