10
Generated by autodE on: 2022-10-06. E = -455.051708 Ha
O     2.76795  -1.08027   0.02412
C     1.95778  -0.14210  -0.21724
O     2.25859   0.99260  -0.68009
C     0.50261  -0.43418   0.08855
C    -0.50261   0.43419  -0.08857
C    -1.95778   0.14210   0.21723
O    -2.25858  -0.99259   0.68010
O    -2.76796   1.08027  -0.02411
H     0.28312  -1.43174   0.48393
H    -0.28312   1.43175  -0.48394
