47
Generated by autodE on: 2022-10-22. E = -1739.986054 Ha
C    -3.92560   0.14511   3.68184
O    -3.36188   0.86061   2.56794
C    -2.30824   0.31414   1.97737
O    -1.81134  -0.74665   2.29518
C    -1.84481   1.15419   0.77439
N    -2.44959   0.68422  -0.45787
C    -1.53007  -0.22488  -1.12786
C    -1.89225  -1.64960  -0.89789
N    -2.25947  -2.72349  -0.66498
C    -1.66814   0.07927  -2.57709
N    -1.88181   0.38516  -3.67347
C    -0.14156   0.13563  -0.50261
C    -0.36337   0.95963   0.54646
C     0.55323   1.79522   1.47562
C    -0.26261   2.28284   2.62566
N    -0.84411   2.68482   3.54409
O     1.69109   1.14818   1.98749
C     1.52990   0.33770   3.15392
C     0.99847   3.09304   0.72874
C     2.21889   2.97567  -0.18149
C     2.13713   1.94770  -1.30870
C     2.38000   0.50224  -0.82925
C     1.18240  -0.47979  -0.97684
C     1.18133  -0.93252  -2.46546
F     1.11100   0.11580  -3.29376
F     0.16554  -1.75869  -2.77877
F     2.30872  -1.59587  -2.75810
C     1.49880  -1.75709  -0.12130
F     2.79568  -2.08458  -0.18786
F     1.20297  -1.57097   1.16610
F     0.80131  -2.82999  -0.52969
H    -4.23630  -0.86199   3.37060
H    -4.79190   0.73101   4.00815
H    -3.18516   0.07207   4.49111
H    -2.11440   2.20425   0.95483
H    -3.39072   0.30517  -0.36361
H     2.41696  -0.30538   3.20784
H     1.48326   0.96634   4.05773
H     0.62909  -0.28880   3.09768
H     0.12688   3.45876   0.16490
H     1.21853   3.84261   1.50291
H     3.11365   2.77810   0.43022
H     2.36117   3.97679  -0.61905
H     2.90592   2.19226  -2.05578
H     1.17295   2.04657  -1.82872
H     2.66186   0.50908   0.22692
H     3.22632   0.06059  -1.36747
