16
Generated by autodE on: 2022-10-26. E = -546.532110 Ha
C    -0.65342   0.04109   3.80084
O    -1.02046   0.70693   2.58370
C    -0.30585   0.39964   1.49578
O     0.61106  -0.40290   1.47990
C    -0.72621   1.22006   0.35978
N    -0.35376   1.01774  -0.88489
C     0.25436  -0.01659  -1.54498
C     0.36211  -1.33197  -1.04477
N     0.43492  -2.45888  -0.74998
C     0.65591   0.21336  -2.88138
N     1.00052   0.38629  -3.98335
H    -1.34183   0.41407   4.56751
H     0.38523   0.28129   4.07125
H    -0.75990  -1.04777   3.68931
H    -1.30456   2.12472   0.54281
H    -0.58918   1.79737  -1.50884
