47
Generated by autodE on: 2022-10-22. E = -1739.905553 Ha. Imaginary frequency = -276.8 cm-1
C    -2.49194  -0.39153   4.06117
O    -2.52901   0.49198   2.92962
C    -2.34314  -0.05862   1.73140
O    -2.16786  -1.24451   1.54445
C    -2.35455   0.99576   0.68606
N    -2.55531   0.75659  -0.61281
C    -2.11580  -0.28075  -1.38901
C    -2.25960  -1.66769  -1.08772
N    -2.40619  -2.82137  -1.04151
C    -2.06745  -0.00331  -2.78939
N    -2.02670   0.22203  -3.93059
C     0.23599   0.22447  -0.26968
C    -0.12478   1.07851   0.56139
C     0.43266   2.15021   1.46692
C    -0.61477   2.89433   2.22014
N    -1.36260   3.54188   2.82454
O     1.35761   1.61064   2.38454
C     0.84759   0.66626   3.32115
C     1.18393   3.21386   0.61566
C     2.55921   2.82018   0.07004
C     2.65384   1.76778  -1.04435
C     2.68598   0.29684  -0.58112
C     1.38397  -0.53433  -0.81334
C     1.23269  -0.85869  -2.32210
F     0.91289   0.24369  -3.01423
F     0.27771  -1.77129  -2.56347
F     2.36976  -1.34027  -2.84078
C     1.51495  -1.86030  -0.01158
F     2.52769  -2.60924  -0.47271
F     1.75971  -1.61044   1.28362
F     0.40491  -2.60317  -0.06316
H    -3.33579  -1.09503   4.01820
H    -2.57543   0.25111   4.94438
H    -1.54711  -0.95160   4.08069
H    -2.67466   1.98558   1.00703
H    -2.72086   1.61126  -1.14851
H     1.70720   0.32126   3.90987
H     0.11026   1.13094   3.99633
H     0.39025  -0.19614   2.81311
H     0.50837   3.52015  -0.19708
H     1.32311   4.08802   1.26966
H     3.21312   2.53136   0.90766
H     2.97867   3.75798  -0.32844
H     3.59761   1.95151  -1.57884
H     1.85862   1.93975  -1.78295
H     2.88323   0.26364   0.49720
H     3.50695  -0.24309  -1.07130
