21
Generated by autodE on: 2022-06-19. E = -570.110113 Ha
C    -4.76928  -0.09814   0.34023
N    -3.58083  -0.20124  -0.48052
C    -2.34321  -0.06706   0.04128
O    -2.14690   0.16813   1.25091
C    -1.22926  -0.20962  -0.89265
N    -0.02273  -0.07226  -0.37588
C     1.20258  -0.13312  -0.90765
C     2.30276   0.07208  -0.00959
O     2.19668   0.29283   1.19808
O     3.49902  -0.00273  -0.63673
C     4.65731   0.18944   0.17831
H    -4.79792   0.86238   0.87851
H    -4.81682  -0.90492   1.09056
H    -5.65384  -0.16675  -0.30442
H    -3.67612  -0.41180  -1.46855
H    -1.34486  -0.41631  -1.95645
H    -0.04029   0.12157   0.64110
H     1.32413  -0.32975  -1.97081
H     5.52038   0.09746  -0.49228
H     4.65019   1.18662   0.64401
H     4.71427  -0.57484   0.96827
