41
Generated by autodE on: 2022-06-19. E = -1027.812804 Ha. Imaginary frequency = -396.5 cm-1
C    -2.18778   3.30979   2.10093
N    -1.53864   2.40038   1.17846
C    -2.26116   1.68208   0.28536
O    -3.49346   1.78301   0.17531
C    -1.47656   0.71356  -0.51616
N    -0.24650   1.09749  -0.97775
C     0.61955   0.15694  -1.40194
C     2.01158   0.56124  -1.56292
O     2.46082   1.64065  -1.20271
O     2.76645  -0.42209  -2.07686
C     4.18012  -0.18659  -2.12099
C     0.43345  -1.08340   0.53148
C     1.35238  -0.15984   1.20584
N     2.65699  -0.52163   1.29819
O     0.96942   0.93859   1.67003
C     0.90845  -2.43859   0.03404
C    -0.22352  -3.18580  -0.62276
C    -1.50512  -2.91140  -0.31806
N    -1.86832  -1.90885   0.57738
C    -3.27755  -1.62749   0.78824
C    -0.94761  -0.87663   0.82098
H    -2.80775   2.77643   2.84274
H    -2.84106   4.00810   1.55803
H    -1.42218   3.88712   2.63518
H    -0.61038   2.03362   1.41917
H    -2.04936   0.07150  -1.18710
H     0.19610   1.90835  -0.54141
H     0.23317  -0.70229  -1.94550
H     4.62398  -1.09214  -2.55027
H     4.40810   0.68378  -2.75303
H     4.57107  -0.01558  -1.10760
H     3.32192   0.19219   1.57881
H     3.01866  -1.31921   0.78883
H     1.31878  -3.02848   0.88187
H     1.74912  -2.32050  -0.67009
H     0.00062  -3.99785  -1.31663
H    -2.33699  -3.47903  -0.74171
H    -3.72772  -1.04507  -0.03497
H    -3.40275  -1.05064   1.71584
H    -3.83274  -2.57010   0.89219
H    -1.18666  -0.27044   1.69525
