44
Generated by autodE on: 2022-06-24. E = -1258.217272 Ha
C    -3.05651   3.02187   0.85703
O    -1.92215   2.21015   0.50050
C    -1.47473   2.30778  -0.73866
O    -1.87970   3.06746  -1.58714
C    -0.41782   1.25638  -1.01315
O     0.57650   1.77038  -1.94119
C     1.66783   0.98618  -1.73380
O     2.67474   1.06140  -2.38270
C     1.26440   0.04466  -0.58407
C     2.34432  -0.47713   0.30392
C     2.16266  -0.47073   1.69292
C     3.12723  -1.04306   2.52559
C     4.27442  -1.62380   1.97651
C     4.45744  -1.62532   0.58976
C     3.49620  -1.05552  -0.24711
O     0.33972   0.90595   0.10718
C     0.26853  -1.01704  -1.23692
C    -0.92570  -0.08610  -1.60466
C    -2.26613  -0.55485  -1.03284
C    -2.12905  -1.04792   0.38105
C    -3.14549  -0.68951   1.37414
N    -2.88365  -0.95555   2.68110
O    -4.22370  -0.16102   1.03773
C    -1.06178  -1.85413   0.63178
N    -0.08483  -2.07284  -0.30317
C     0.85335  -3.16974  -0.09232
H    -2.79797   4.08673   0.77672
H    -3.90401   2.79025   0.19788
H    -3.29476   2.75941   1.89298
H     1.26111  -0.02861   2.11800
H     2.97881  -1.03829   3.60783
H     5.02616  -2.07461   2.62854
H     5.35174  -2.07797   0.15555
H     3.63411  -1.07053  -1.32858
H     0.73439  -1.46570  -2.12184
H    -1.00605   0.03501  -2.69110
H    -3.02015   0.23953  -1.10800
H    -2.62017  -1.37739  -1.67921
H    -3.57581  -0.67880   3.36888
H    -1.95109  -1.17762   3.00646
H    -0.94606  -2.40825   1.56837
H     1.46776  -3.03379   0.81178
H     0.30252  -4.11793  -0.00039
H     1.52425  -3.24570  -0.95659
