20
Generated by autodE on: 2022-06-24. E = -457.715311 Ha
C     3.09173  -0.39743  -0.61229
N     1.81954  -0.18620   0.05841
C     1.80328   0.16135   1.41499
C     0.66914   0.43437   2.07935
C    -0.69479   0.39330   1.43507
C    -0.57503   0.03891  -0.03851
C    -1.76077  -0.04760  -0.90610
N    -2.95511   0.20323  -0.31300
O    -1.70544  -0.33265  -2.11993
C     0.63442  -0.21731  -0.61252
H     3.68092   0.53380  -0.66140
H     2.90790  -0.74966  -1.63501
H     3.68885  -1.15633  -0.08297
H     2.78420   0.19208   1.89282
H     0.73714   0.69404   3.13827
H    -1.34435  -0.33301   1.96612
H    -1.20679   1.36833   1.56812
H    -3.79584   0.16033  -0.87847
H    -3.04177   0.44720   0.66517
H     0.69108  -0.46971  -1.67249
