53
Generated by autodE on: 2022-06-09. E = -3858.393365 Ha
C     4.30223   0.70317  -2.67590
O     3.64167   0.92317  -1.42002
C     2.42758   0.39996  -1.28083
O     1.85435  -0.18646  -2.17719
C     1.77554   0.65961   0.10800
C     2.62149   1.63129   0.93294
N     0.42597   1.14565  -0.08561
C     0.26670   2.51021  -0.54981
C    -0.53392   0.08618  -0.36976
C    -0.73641  -0.22878  -1.88483
C    -0.86198   0.90455  -2.86727
O    -0.94253  -1.37410  -2.24681
C    -1.93923   0.47978   0.14395
C    -2.07475   1.41918   1.17836
C    -3.33273   1.76037   1.67794
C    -4.48668   1.17415   1.14958
C    -4.36613   0.24591   0.11356
C    -3.10574  -0.09457  -0.38648
C     0.08504  -1.17610   0.42000
C    -0.08796  -2.53214  -0.30234
C    -1.41761  -3.23408  -0.12151
O     0.82446  -3.08507  -0.88268
C    -0.54334  -1.27963   1.87675
C     0.09355  -2.46453   2.58919
C     1.32685  -2.06053   2.90937
C     1.42163  -0.63308   2.38325
O     0.08134  -0.17319   2.53558
C     1.54604  -0.70940   0.81694
Br    3.14627  -1.84856   0.48459
H     4.43980  -0.37415  -2.84830
H     5.27410   1.20339  -2.59753
H     3.71527   1.13394  -3.49936
H     2.07256   1.94384   1.82988
H     2.87246   2.52653   0.35196
H     3.56374   1.15425   1.23314
H     0.60667   3.22095   0.21908
H     0.82852   2.72696  -1.47823
H    -0.78988   2.72428  -0.74087
H     0.09141   1.43237  -2.98771
H    -1.61046   1.63137  -2.52151
H    -1.17232   0.48898  -3.83466
H    -1.18329   1.87061   1.60656
H    -3.40957   2.49048   2.48730
H    -5.47131   1.44230   1.53964
H    -5.25670  -0.21884  -0.31583
H    -3.04694  -0.82011  -1.19667
H    -1.62621  -3.82576  -1.02225
H    -1.33551  -3.93297   0.72602
H    -2.24910  -2.54920   0.07916
H    -1.63144  -1.20511   1.91102
H    -0.36743  -3.43955   2.73702
H     2.13281  -2.61698   3.38372
H     2.14101   0.02946   2.86977
