18
Generated by autodE on: 2022-06-09. E = -3033.824595 Ha
C     2.65880   0.91948  -0.15597
C     1.39581   1.56741  -0.65215
O     1.38282   2.72722  -1.06080
C     0.14091   0.80703  -0.64994
C    -0.26654  -0.35179  -0.09308
Br    0.61814  -1.61099   0.96054
C    -1.78985  -0.44450  -0.36477
C    -2.45003   0.64794   0.50649
C    -2.06663   1.79937  -0.05202
C    -1.17293   1.38864  -1.24126
O    -1.82616   0.17294  -1.65551
H     2.58435   0.72975   0.92716
H     3.50874   1.58731  -0.34759
H     2.82448  -0.05232  -0.64561
H    -2.22812  -1.44772  -0.35740
H    -3.03984   0.45991   1.40251
H    -2.25901   2.82556   0.25853
H    -1.04809   2.10137  -2.06151
