35
Generated by autodE on: 2022-07-27. E = -824.515165 Ha
C     3.81468  -1.85301  -1.26339
O     3.31878  -0.56302  -0.88374
C     2.13837  -0.53754  -0.24406
O     1.50955  -1.55546   0.00573
C     1.78488   0.83700   0.18226
C     2.85256   1.84339   0.46630
N     0.50377   1.11645   0.44738
C     0.18170   2.21055   1.37985
C    -0.50302   0.48273  -0.24807
C    -0.32765   0.18846  -1.65612
C     0.66686   0.96893  -2.50348
O    -1.06166  -0.63186  -2.23591
C    -1.68753   0.03282   0.49098
C    -1.55396  -0.42296   1.81983
C    -2.66529  -0.84565   2.55016
C    -3.93543  -0.83808   1.96528
C    -4.08191  -0.40027   0.64309
C    -2.97513   0.03168  -0.08615
H     3.99477  -2.47445  -0.37417
H     4.75617  -1.66964  -1.79389
H     3.09754  -2.36114  -1.92407
H     2.96703   2.00636   1.55205
H     2.61070   2.81942   0.01512
H     3.81506   1.50373   0.07211
H     0.68443   2.05706   2.34315
H     0.51974   3.16000   0.94046
H    -0.90177   2.25309   1.51846
H     1.09250   1.85450  -2.01474
H     0.12263   1.27949  -3.40918
H     1.49293   0.31869  -2.83109
H    -0.56123  -0.46323   2.27294
H    -2.53605  -1.19561   3.57728
H    -4.80600  -1.17411   2.53342
H    -5.07123  -0.38769   0.17904
H    -3.10490   0.38234  -1.11006
