53
Generated by autodE on: 2022-06-09. E = -3858.319135 Ha. Imaginary frequency = -186.1 cm-1
C     4.15002  -0.11554  -2.75691
O     3.51410   0.59328  -1.68862
C     2.20100   0.36790  -1.51748
O     1.58773  -0.37818  -2.26772
C     1.66705   1.09672  -0.35971
C     2.63921   1.96427   0.38973
N     0.31346   1.34987  -0.22711
C    -0.00790   2.57548   0.54436
C    -0.71059   0.56347  -0.68573
C    -0.71022   0.06430  -2.11943
C    -0.46954   1.12998  -3.16276
O    -1.18736  -1.01693  -2.42467
C    -2.07393   0.66160  -0.11368
C    -2.31048   0.94389   1.25450
C    -3.59916   0.97932   1.78206
C    -4.70963   0.73603   0.96932
C    -4.50533   0.45925  -0.38468
C    -3.21768   0.42303  -0.91698
C     0.44083  -1.51730   0.68047
C    -0.02462  -2.56007  -0.23148
C    -1.41020  -3.10280   0.04244
O     0.66153  -3.00710  -1.15015
C    -0.25461  -1.22129   2.03102
C     0.36591  -2.18293   3.06324
C     1.60880  -1.73046   3.25968
C     1.72275  -0.49502   2.34116
O     0.38874   0.01529   2.40196
C     1.72896  -1.03123   0.89071
Br    3.34858  -1.87543   0.35924
H     4.03250  -1.20063  -2.62858
H     5.21046   0.15843  -2.71017
H     3.72327   0.18293  -3.72569
H     2.29329   2.19686   1.40257
H     2.83849   2.91822  -0.12986
H     3.59541   1.43527   0.47184
H     0.15968   2.44421   1.61770
H     0.62970   3.38501   0.17253
H    -1.04750   2.85034   0.35885
H     0.25777   1.89041  -2.85423
H    -1.43843   1.63576  -3.32210
H    -0.15903   0.66138  -4.10631
H    -1.47697   1.11780   1.92622
H    -3.73177   1.19247   2.84531
H    -5.71934   0.76267   1.38495
H    -5.35750   0.27296  -1.04233
H    -3.11472   0.20772  -1.97787
H    -1.69186  -3.80975  -0.74867
H    -1.42747  -3.62219   1.01549
H    -2.14700  -2.28713   0.09417
H    -1.34248  -1.13285   2.02855
H    -0.12426  -3.06895   3.46520
H     2.41562  -2.13886   3.86664
H     2.47461   0.25852   2.59333
