44
Generated by autodE on: 2022-06-19. E = -917.796603 Ha
C    -1.36229  -0.96162  -2.22108
C    -0.19739  -1.45767  -1.78852
C     0.80898  -2.11119  -2.69055
C     0.26356  -1.34018  -0.34344
C     1.11002  -0.05074  -0.15639
C     2.28527  -0.22247   0.77258
C     3.28985   0.65865   0.92424
C     4.42188   0.38750   1.87682
C     3.37047   1.97100   0.19390
N     0.07487   0.89570   0.33060
C    -0.50599   1.77490  -0.60278
O     0.15661   2.21903  -1.54609
N    -1.77531   2.14716  -0.33455
C    -2.53597   2.91441  -1.29952
N    -0.81490   0.19470   1.16181
C    -0.38751   0.20606   2.56624
N    -0.82835  -1.12684   0.61369
C    -1.89612  -1.96197   0.73340
C    -3.09522  -1.45082   1.48833
O    -1.85081  -3.09509   0.24450
H    -2.08146  -0.49710  -1.54264
H    -1.63621  -1.01282  -3.27839
H     0.95663  -3.16546  -2.39859
H     0.49512  -2.07883  -3.74331
H     1.79448  -1.62189  -2.60295
H     0.84241  -2.23324  -0.06859
H     1.44415   0.32445  -1.12841
H     2.30772  -1.14838   1.35632
H     5.39052   0.40563   1.34698
H     4.31692  -0.58518   2.37947
H     4.47759   1.17511   2.64892
H     4.31268   2.03321  -0.37808
H     2.53286   2.14698  -0.49238
H     3.39567   2.80409   0.91825
H    -2.26027   1.57956   0.35619
H    -2.77512   2.32498  -2.20209
H    -3.47502   3.24272  -0.83582
H    -1.97076   3.80322  -1.61292
H     0.58342  -0.28906   2.72473
H    -0.32387   1.25432   2.88594
H    -1.15292  -0.29551   3.17236
H    -2.91515  -1.49538   2.57404
H    -3.94879  -2.09831   1.25165
H    -3.31994  -0.40707   1.22753
