23
Generated by autodE on: 2022-06-19. E = -351.521380 Ha
C     3.44730  -1.40327  -0.66858
C     2.52257  -0.52972  -0.21288
C     2.92520   0.73626   0.49950
C     1.10037  -0.80470  -0.40779
C     0.07811  -0.01051  -0.00127
C    -1.31752  -0.33085  -0.22140
C    -2.39426   0.40749   0.14911
C    -3.78911  -0.06256  -0.15311
C    -2.31515   1.72166   0.87283
H     3.15200  -2.32137  -1.18590
H     4.51772  -1.22260  -0.53642
H     4.01837   0.81763   0.57964
H     2.54953   1.62726  -0.03060
H     2.49961   0.77292   1.51611
H     0.86072  -1.73853  -0.93061
H     0.30967   0.92207   0.52047
H    -1.50921  -1.27483  -0.74588
H    -3.79761  -1.02539  -0.68475
H    -4.32833   0.68081  -0.76749
H    -4.37552  -0.17163   0.77702
H    -1.28936   2.04847   1.08603
H    -2.81237   2.51239   0.28358
H    -2.86355   1.66405   1.82973
