21
Generated by autodE on: 2022-06-19. E = -566.230373 Ha
C     3.08910  -1.36520   0.40112
N     2.29533  -0.15347   0.38489
C     1.16040  -0.06663  -0.32368
O     0.72538  -0.96259  -1.05021
N     0.59535   1.23071  -0.25726
N    -0.67200   1.37251  -0.34465
C    -1.13125   2.74843  -0.63439
N    -1.63501   0.50896  -0.25728
C    -1.47952  -0.64814   0.49562
C    -2.40345  -1.75304   0.08214
O    -0.71979  -0.73157   1.45665
H     2.44696  -2.24074   0.57692
H     3.62198  -1.51712  -0.55232
H     3.82707  -1.29624   1.20938
H     2.60952   0.66763   0.89240
H    -1.79427   3.06336   0.18078
H    -1.69300   2.72174  -1.57638
H    -0.25565   3.39777  -0.71544
H    -1.98109  -2.21856  -0.82497
H    -3.40015  -1.36771  -0.17369
H    -2.46850  -2.50941   0.87477
