46
Generated by autodE on: 2022-06-03. E = -1368.362024 Ha
C    -1.70389   3.10948   1.20006
O    -1.26170   2.06955   0.30725
C    -1.46343   0.82849   0.69348
O    -2.06216   0.48152   1.68607
C    -0.94098  -0.17362  -0.36130
C    -2.09733  -0.55393  -1.27724
C    -1.94386  -0.47667  -2.66764
C    -2.99746  -0.85288  -3.50378
C    -4.19971  -1.31363  -2.96119
C    -4.34990  -1.39272  -1.57364
C    -3.30574  -1.01005  -0.73023
O     0.11155   0.33722  -1.14409
N     1.33599   0.18242  -0.45245
C     2.09483   1.36266  -0.30717
C     3.34525   1.28998   0.33043
C     4.12320   2.44076   0.46103
C     3.68361   3.66331  -0.05593
C     2.45133   3.71939  -0.71266
C     1.65390   2.58056  -0.84462
C     1.22458  -0.82813   0.58964
C     2.26770  -1.85103   0.41817
N     3.11353  -2.63077   0.28026
C     1.25815  -0.21674   2.06069
C     1.92277  -1.00764   3.13271
O     0.74377   0.86346   2.20855
C    -0.22604  -1.43093   0.30400
C    -0.86894  -2.00982   1.48779
N    -1.32969  -2.55268   2.40084
C    -0.13766  -2.49017  -0.71482
N    -0.06231  -3.32029  -1.51794
H    -2.79121   3.04662   1.34420
H    -1.43094   4.05255   0.71494
H    -1.18993   3.00836   2.16567
H    -1.00507  -0.12809  -3.09517
H    -2.87278  -0.78689  -4.58677
H    -5.01994  -1.61041  -3.61864
H    -5.28564  -1.75253  -1.14081
H    -3.43597  -1.06920   0.35050
H     3.72489   0.34211   0.71466
H     5.08907   2.37162   0.96653
H     4.29818   4.55993   0.04628
H     2.09442   4.66448  -1.12891
H     0.69218   2.63352  -1.34865
H     1.68329  -0.57196   4.11016
H     3.01282  -0.96515   2.96519
H     1.63008  -2.06754   3.09168
