14
Generated by autodE on: 2022-06-03. E = -508.169946 Ha
C    -2.93676  -0.40977  -0.16425
C    -1.51070  -0.68146  -0.51020
O    -1.14033  -1.52861  -1.29506
C    -0.45733   0.17455   0.18150
C    -0.87655   1.18354   1.09802
N    -1.24344   1.99995   1.83927
C     0.87548  -0.00277  -0.05828
C     1.41124  -0.97766  -0.96431
N     2.00071  -1.70429  -1.65327
C     1.85673   0.80141   0.60809
N     2.65947   1.44648   1.14441
H    -3.09037  -0.55247   0.91831
H    -3.59112  -1.08152  -0.73209
H    -3.18074   0.64185  -0.38791
