32
Generated by autodE on: 2022-07-27. E = -860.140801 Ha
C    -1.00848  -0.07184   3.91217
O    -0.73408  -0.43947   2.54644
C    -1.36281   0.24782   1.60641
O    -2.19688   1.10472   1.79597
C    -0.94071  -0.18584   0.22534
O     0.23356   0.16125  -0.18201
N     1.01415   0.96001   0.59765
C     2.25916   1.08142   0.02585
C     3.15051   1.96613   0.68444
C     4.43601   2.17376   0.19476
C     4.87724   1.51208  -0.95977
C     4.00537   0.63091  -1.61225
C     2.71575   0.40570  -1.13413
C    -1.80360  -0.90581  -0.67026
C    -1.40254  -1.18481  -1.99971
C    -2.24236  -1.89975  -2.84462
C    -3.49271  -2.34554  -2.39181
C    -3.89933  -2.07114  -1.08128
C    -3.06696  -1.35901  -0.22216
H    -0.40841  -0.74858   4.52999
H    -0.71169   0.97237   4.08460
H    -2.07805  -0.19609   4.13152
H     2.80289   2.48282   1.58176
H     5.10386   2.86208   0.71919
H     5.88711   1.67639  -1.34143
H     4.33844   0.10146  -2.50896
H     2.05928  -0.29689  -1.64751
H    -0.43482  -0.82993  -2.35648
H    -1.92615  -2.10954  -3.86867
H    -4.14927  -2.90386  -3.06262
H    -4.87252  -2.41600  -0.72590
H    -3.39466  -1.15192   0.79822
