32
Generated by autodE on: 2022-06-03. E = -860.142386 Ha
C    -0.67373   4.12336  -0.00733
O    -0.36092   2.72506  -0.07057
C    -1.40017   1.88138  -0.03186
O    -2.55955   2.25325   0.02768
C    -0.98651   0.45784  -0.05576
O     0.30633   0.33625   0.09600
N     0.97371  -0.81258   0.10924
C     2.32837  -0.55689   0.22107
C     3.15807  -1.70175   0.25766
C     4.53918  -1.56731   0.36702
C     5.12403  -0.29686   0.44365
C     4.30615   0.84123   0.40757
C     2.92330   0.72586   0.29633
C    -1.92336  -0.64198  -0.20343
C    -3.13940  -0.43518  -0.90261
C    -4.06055  -1.46751  -1.04329
C    -3.80626  -2.72601  -0.48475
C    -2.61264  -2.94474   0.20897
C    -1.67204  -1.92488   0.34060
H     0.28789   4.64751  -0.04551
H    -1.19930   4.35918   0.92948
H    -1.30136   4.41609  -0.86148
H     2.69277  -2.68764   0.19634
H     5.16669  -2.46138   0.39309
H     6.20768  -0.19296   0.53028
H     4.75557   1.83572   0.46610
H     2.29606   1.61635   0.26619
H    -3.34989   0.53592  -1.34550
H    -4.98506  -1.29038  -1.59727
H    -4.53381  -3.53328  -0.59569
H    -2.40606  -3.92305   0.64872
H    -0.74384  -2.11160   0.87237
