46
Generated by autodE on: 2022-06-03. E = -1368.331938 Ha. Imaginary frequency = -157.5 cm-1
C    -1.75619   2.34557   2.91402
O    -1.32023   1.87013   1.62808
C    -1.78887   0.69777   1.23877
O    -2.62423   0.05674   1.83546
C    -1.24196   0.29390  -0.11981
C    -2.16973  -0.06700  -1.19403
C    -1.77372   0.09562  -2.54136
C    -2.63289  -0.26709  -3.57399
C    -3.88829  -0.81474  -3.28852
C    -4.28224  -0.99370  -1.95857
C    -3.43738  -0.62246  -0.91545
O    -0.11027   0.84025  -0.56504
N     0.88048   1.07357   0.31936
C     2.01008   1.51638  -0.35513
C     2.98692   2.13698   0.45262
C     4.16572   2.60111  -0.12184
C     4.37977   2.45565  -1.49814
C     3.41324   1.83399  -2.30043
C     2.23466   1.35299  -1.74052
C     1.11147  -1.09294   0.93180
C     2.28827  -1.30834   0.16658
N     3.25219  -1.44130  -0.47276
C     1.23328  -0.71314   2.37880
C     2.60997  -0.53695   2.93600
O     0.21484  -0.56277   3.03296
C    -0.12319  -1.64316   0.44557
C    -1.05467  -2.29610   1.32299
N    -1.81452  -2.92366   1.93890
C    -0.11906  -2.19323  -0.87839
N    -0.12944  -2.59836  -1.96755
H    -2.84857   2.46297   2.92926
H    -1.26273   3.31324   3.05513
H    -1.44443   1.63639   3.69347
H    -0.79617   0.51585  -2.77353
H    -2.31805  -0.12587  -4.60993
H    -4.55748  -1.10349  -4.10203
H    -5.25831  -1.42614  -1.72922
H    -3.74942  -0.77036   0.11562
H     2.78831   2.26147   1.51785
H     4.91775   3.08782   0.50228
H     5.30409   2.82460  -1.94773
H     3.58885   1.71333  -3.37140
H     1.49139   0.84861  -2.35689
H     2.55000  -0.15071   3.96066
H     3.20518   0.13971   2.30502
H     3.12600  -1.51174   2.93139
