22
Generated by autodE on: 2022-10-26. E = -533.911634 Ha
C    -4.57767   1.07430  -0.26575
C    -3.12585   0.81241  -0.56794
O    -2.62954   1.06457  -1.67912
C    -2.32144   0.27083   0.50242
N    -1.02989   0.08076   0.23940
N    -0.14309  -0.41466   1.02688
C     1.16866  -0.44479   0.55460
C     1.65684   0.26914  -0.56292
C     2.99570   0.15417  -0.93561
C     3.87579  -0.65508  -0.20750
C     3.40301  -1.34970   0.91224
C     2.06743  -1.24329   1.29271
H    -5.11128   1.33988  -1.18777
H    -5.04566   0.19398   0.20226
H    -4.66102   1.90618   0.45409
H    -2.69780   0.02079   1.49321
H    -0.78446   0.37188  -0.72731
H     1.01211   0.93945  -1.13568
H     3.35847   0.71557  -1.80000
H     4.92357  -0.73472  -0.50500
H     4.08110  -1.97894   1.49366
H     1.68644  -1.78161   2.16279
