37
Generated by autodE on: 2022-06-07. E = -1029.220110 Ha
C    -1.77641  -2.93983   1.69273
N    -1.39393  -1.86869   0.79027
C    -1.41111  -0.58966   1.20323
O    -1.94492  -0.20595   2.24319
C    -0.84975   0.40245   0.20491
O     0.22771   0.17957  -0.46634
C     1.22860  -0.73945  -0.29891
C     1.59751  -1.11522   1.06269
O     1.00151  -0.62694   2.04572
N     2.61757  -1.99134   1.20222
C     3.17266  -2.29141   2.50469
C     2.06880  -0.88980  -1.45564
O     3.07293  -1.60742  -1.50162
O     1.64236  -0.19018  -2.53024
C     2.42935  -0.30774  -3.71882
C    -1.55684   1.61401  -0.14675
C    -0.92978   2.56106  -0.99401
C    -1.60092   3.71724  -1.37005
C    -2.90271   3.95731  -0.90850
C    -3.53189   3.02997  -0.07071
C    -2.87166   1.86607   0.31198
H    -2.78873  -2.76917   2.08506
H    -1.76140  -3.88888   1.14395
H    -1.08061  -3.00467   2.54584
H    -0.82210  -2.11161  -0.01593
H     3.13818  -2.21542   0.35451
H     2.37513  -2.57211   3.20834
H     3.86952  -3.13380   2.40896
H     3.71730  -1.43466   2.93888
H     2.47264  -1.35323  -4.05850
H     1.92903   0.31069  -4.47375
H     3.45288   0.05971  -3.55167
H     0.08502   2.37454  -1.34599
H    -1.10848   4.44245  -2.02107
H    -3.42535   4.87069  -1.20126
H    -4.54736   3.21484   0.28527
H    -3.36907   1.14945   0.96268
