51
Generated by autodE on: 2022-06-07. E = -1528.289952 Ha. Imaginary frequency = -253.1 cm-1
C    -3.38238   0.30643  -2.87469
N    -2.41767  -0.11588  -1.88222
C    -2.72583  -0.28694  -0.57488
O    -3.88613  -0.24970  -0.13755
C    -1.58153  -0.55872   0.32775
C    -1.79261  -1.50226   1.44816
O    -1.23761  -2.58601   1.51984
O    -2.68062  -1.06851   2.34278
C    -3.00115  -1.97126   3.41264
O    -0.39892  -0.57158  -0.30469
C     0.83302  -0.54762   0.13517
C     1.20857  -1.21373   1.45255
O     0.71495  -0.90241   2.53871
N     2.12808  -2.18386   1.32646
C     2.57180  -2.94988   2.47601
C     1.84248  -0.32965  -0.90578
C     1.56472  -0.61340  -2.25640
C     2.52541  -0.37174  -3.23667
C     3.77285   0.15421  -2.88678
C     4.06080   0.43065  -1.54462
C     3.10762   0.18774  -0.55865
C     0.52452   1.64000   1.23832
C     0.57550   2.87849   0.32102
O    -0.30257   3.75974   1.06648
C    -1.42714   2.84831   1.06765
C    -1.55132   2.66637  -0.43631
F    -2.70591   2.56105  -1.05164
C    -0.30343   2.64218  -0.94126
C     0.10585   2.47036  -2.27451
N     0.43489   2.34520  -3.38591
C    -0.77037   1.57975   1.66398
H    -3.57081  -0.48563  -3.61826
H    -3.01855   1.19898  -3.40553
H    -4.32999   0.54656  -2.37781
H    -1.43691  -0.08745  -2.13669
H    -3.42476  -2.90494   3.01568
H    -2.09954  -2.19695   3.99967
H    -3.74028  -1.45198   4.03313
H     2.50285  -2.40091   0.40835
H     3.32349  -3.67694   2.14718
H     1.72752  -3.48589   2.93704
H     3.01605  -2.29144   3.23843
H     0.60013  -1.04184  -2.53033
H     2.29894  -0.59764  -4.28080
H     4.52314   0.34421  -3.65750
H     5.03256   0.84397  -1.26605
H     3.33072   0.41926   0.48454
H     1.40603   1.23646   1.72076
H     1.55607   3.32413   0.13363
H    -2.30728   3.24572   1.58241
H    -1.19510   1.01529   2.48720
