56
Generated by autodE on: 2022-06-28. E = -1411.735750 Ha
C    -3.68851   2.59682   1.91067
N    -2.62228   2.14479   1.04037
C    -2.77580   1.10968   0.20472
O    -3.84448   0.50472   0.05744
C    -1.52072   0.69626  -0.58500
C    -1.69224   0.97950  -2.11651
C    -2.98143   1.54396  -2.63698
O    -0.70107   0.90800  -2.82689
N    -0.32319   1.38639  -0.10692
C     0.87364   0.55972  -0.26041
C     1.74808   1.18289  -1.36088
O     1.77849   2.37767  -1.57891
O     2.49719   0.29947  -2.00907
C     3.38845   0.80822  -3.01497
C     1.72306   0.52335   1.01858
C     2.96468  -0.13355   1.02836
C     3.72121  -0.20385   2.20022
C     3.25401   0.38694   3.37862
C     2.02799   1.05708   3.37090
C     1.26991   1.12578   2.19823
C     0.32261  -0.86405  -0.68585
N     1.02536  -2.00958  -0.18158
C     1.81568  -2.79936  -1.10820
C     0.64859  -2.55458   1.02574
C    -0.42417  -2.14936   1.73746
C    -1.34144  -1.06953   1.24358
C    -1.18203  -0.79243  -0.27476
C    -1.98693  -1.75815  -1.14247
N    -2.01303  -3.03629  -0.73835
O    -2.53719  -1.38410  -2.18531
H    -3.41037   3.56351   2.34853
H    -3.87976   1.87990   2.72692
H    -4.62009   2.71786   1.33976
H    -1.66689   2.45968   1.19090
H    -3.11328   2.54964  -2.20085
H    -3.84231   0.94051  -2.33250
H    -2.92504   1.63202  -3.72957
H    -0.18686   2.29436  -0.54806
H     4.10664   1.50944  -2.56728
H     3.90968  -0.06482  -3.42315
H     2.81658   1.31651  -3.80385
H     3.34517  -0.59596   0.11852
H     4.68176  -0.72465   2.19113
H     3.84565   0.32982   4.29546
H     1.65489   1.52972   4.28280
H     0.31267   1.64602   2.19230
H     0.36339  -0.90352  -1.77685
H     2.43278  -2.14472  -1.73720
H     2.48457  -3.46386  -0.54227
H     1.18579  -3.42579  -1.76805
H     1.28994  -3.36661   1.37932
H    -0.62167  -2.60318   2.70992
H    -2.39120  -1.32596   1.45028
H    -1.15058  -0.13420   1.79128
H    -2.50771  -3.72079  -1.30229
H    -1.53841  -3.33083   0.11272
