20
Generated by autodE on: 2022-06-28. E = -457.715309 Ha
C    -3.09003   0.54562  -0.50405
N    -1.82624  -0.05254  -0.10626
C    -1.82855  -1.21927   0.66856
C    -0.70078  -1.79519   1.11428
C     0.67544  -1.24977   0.82174
C     0.57649   0.03055   0.00831
C     1.77874   0.78115  -0.38759
N     2.96671   0.24809  -0.00605
O     1.74212   1.84885  -1.03273
C    -0.62785   0.53012  -0.38901
H    -3.70835  -0.17983  -1.05592
H    -2.89465   1.40524  -1.15721
H    -3.66313   0.89269   0.37201
H    -2.81859  -1.62545   0.88380
H    -0.78367  -2.70553   1.71244
H     1.28122  -2.01256   0.28994
H     1.22485  -1.07438   1.76912
H     3.82042   0.73035  -0.26463
H     3.03736  -0.62436   0.50185
H    -0.66860   1.45093  -0.97297
