36
Generated by autodE on: 2022-06-28. E = -953.993540 Ha
C     3.76291   2.71699   0.45223
N     3.33083   1.39297   0.06315
C     2.05548   0.99296   0.23177
O     1.16960   1.77665   0.63734
C     1.76358  -0.42404  -0.04558
N     0.45240  -0.84572   0.06255
C    -0.68675  -0.20045  -0.10078
C    -0.68972   1.09098  -0.86099
O    -0.06673   1.24992  -1.89145
O    -1.53785   1.97335  -0.34592
C    -1.63456   3.23709  -1.02072
C    -1.93478  -0.82893   0.32424
C    -3.14870  -0.54607  -0.33972
C    -4.32351  -1.19215   0.03608
C    -4.31633  -2.12445   1.08036
C    -3.12268  -2.40425   1.75282
C    -1.94260  -1.75974   1.38514
C     2.76587  -1.44011  -0.23734
C     2.32393  -2.88567  -0.35985
O     3.98515  -1.17614  -0.32387
H     4.78706   2.87850   0.09226
H     3.75163   2.85727   1.54742
H     3.10890   3.48474   0.01227
H     4.00159   0.64556  -0.13611
H     0.33767  -1.82203   0.34994
H    -0.65814   3.74209  -1.00883
H    -1.96557   3.09469  -2.05917
H    -2.37367   3.82118  -0.46119
H    -3.16848   0.16475  -1.16655
H    -5.25250  -0.97045  -0.49361
H    -5.24147  -2.62522   1.37417
H    -3.11241  -3.11615   2.58097
H    -1.02913  -1.95635   1.95033
H     1.67746  -3.03514  -1.23900
H     1.76234  -3.21926   0.53028
H     3.21686  -3.51515  -0.46006
