56
Generated by autodE on: 2022-06-28. E = -1411.675092 Ha. Imaginary frequency = -368.1 cm-1
C    -2.22168   1.80199   2.96835
N    -1.94636   1.67894   1.55186
C    -2.13185   0.51317   0.90051
O    -2.68117  -0.45434   1.43445
C    -1.71789   0.55696  -0.55552
C    -2.87827   0.66585  -1.50819
C    -4.17408  -0.00928  -1.16689
O    -2.73822   1.30317  -2.54652
N    -0.68313   1.37991  -0.92092
C     0.66152   1.14750  -0.61773
C     1.49578   1.59728  -1.76770
O     1.04277   2.12316  -2.77430
O     2.79028   1.28871  -1.64213
C     3.64839   1.63526  -2.73640
C     1.21186   1.34256   0.75656
C     0.78865   0.58177   1.86127
C     1.31482   0.80139   3.13621
C     2.27603   1.79231   3.34456
C     2.69867   2.57065   2.26194
C     2.17536   2.34729   0.98847
C     0.67879  -1.05767  -0.89629
N     1.36004  -1.65230   0.15178
C     2.80508  -1.52692   0.23133
C     0.68123  -2.41296   1.10036
C    -0.59579  -2.79256   0.94401
C    -1.34808  -2.49438  -0.32247
C    -0.72178  -1.35124  -1.11320
C    -1.09570  -1.23087  -2.55522
N    -2.18150  -1.92186  -2.97239
O    -0.44525  -0.52808  -3.34378
H    -1.62076   1.08949   3.55636
H    -3.28427   1.60799   3.18029
H    -1.97576   2.82130   3.28945
H    -1.42731   2.41289   1.08228
H    -4.81571  -0.02572  -2.05669
H    -4.02025  -1.02440  -0.78023
H    -4.67587   0.56541  -0.37043
H    -0.78737   1.66095  -1.90250
H     3.63887   2.72177  -2.90491
H     4.65263   1.30567  -2.44637
H     3.32868   1.11983  -3.65339
H     0.04370  -0.19800   1.74641
H     0.96693   0.18651   3.96943
H     2.68892   1.96208   4.34174
H     3.43737   3.36228   2.40839
H     2.51603   2.97545   0.16489
H     1.27848  -0.91038  -1.79152
H     3.12054  -0.56443  -0.18681
H     3.12204  -1.56818   1.28289
H     3.31945  -2.33510  -0.32013
H     1.26419  -2.66125   1.98980
H    -1.08443  -3.37218   1.72870
H    -2.40130  -2.28186  -0.09587
H    -1.35726  -3.40041  -0.96370
H    -2.79923  -2.40211  -2.32978
H    -2.50987  -1.76148  -3.91925
