48
Generated by autodE on: 2022-06-01. E = -1280.674058 Ha
C     4.34404   1.54059   0.40068
C     3.78955   0.20019   0.01244
O     4.47873  -0.81014  -0.04089
C     2.34675   0.15343  -0.32233
C     1.52764  -0.91578  -0.38374
C     1.80369  -2.35880  -0.10038
F     2.42369  -2.54788   1.07839
F     2.56072  -2.93504  -1.04901
F     0.64733  -3.05275  -0.04330
C     0.12778  -0.34980  -0.58278
O     0.40614   0.82292  -1.35075
C     1.40976   1.35383  -0.47765
C     0.65607   1.47478   0.88447
C    -0.29079   2.68050   1.02953
C     0.17270   3.95932   0.34266
N    -1.58100   2.19687   0.53838
C    -2.70208   3.06277   0.84559
C    -1.73005   0.78197   0.93605
C    -2.17199   0.63668   2.40769
C    -2.68627   0.04282  -0.00274
C    -2.98535   0.55213  -1.27554
C    -3.79716  -0.15831  -2.16418
C    -4.32244  -1.40146  -1.80052
C    -4.02663  -1.92384  -0.53799
C    -3.21994  -1.20736   0.35090
C    -0.27522   0.22907   0.81024
H     5.38980   1.44155   0.71798
H     4.27985   2.22598  -0.46103
H     3.73942   1.98766   1.20633
H    -0.60260  -0.99667  -1.07436
H     1.84784   2.26996  -0.88167
H     1.37016   1.44497   1.71589
H    -0.35746   2.90237   2.11773
H     1.19412   4.21478   0.66512
H     0.16892   3.85101  -0.75272
H    -0.47712   4.80811   0.60265
H    -2.61906   4.00912   0.28968
H    -3.64495   2.58686   0.53992
H    -2.78154   3.31733   1.92353
H    -3.20763   0.97641   2.55151
H    -1.51697   1.23089   3.06249
H    -2.10698  -0.40663   2.74392
H    -2.56305   1.51259  -1.56710
H    -4.01718   0.26246  -3.14873
H    -4.95541  -1.95939  -2.49482
H    -4.42561  -2.89672  -0.23998
H    -2.99614  -1.64220   1.32580
H    -0.08936  -0.51659   1.59152
