21
Generated by autodE on: 2022-06-01. E = -797.432671 Ha
C     3.26013   0.57089   0.39125
C     2.05494  -0.30598   0.20932
O     2.13110  -1.47232  -0.15440
C     0.74255   0.31804   0.49305
C    -0.48932  -0.07780   0.12687
C    -0.92969  -1.26579  -0.66757
F    -0.75743  -2.41943   0.00013
F    -0.27456  -1.37747  -1.83641
F    -2.24177  -1.17576  -0.96432
C    -1.43638   1.05750   0.58546
C    -1.13440   2.27527  -0.31888
C     0.08384   2.67864   0.04983
C     0.50485   1.69828   1.16774
O    -0.76442   1.44596   1.79171
H     3.12653   1.52136  -0.15138
H     3.36841   0.82657   1.45881
H     4.16279   0.05421   0.04138
H    -2.48394   0.78883   0.75070
H    -1.78938   2.64207  -1.10781
H     0.71077   3.47462  -0.34959
H     1.26210   2.03387   1.88211
