27
Generated by autodE on: 2022-06-01. E = -483.120670 Ha
C     4.11210   0.58613  -0.26284
C     2.90732  -0.29044  -0.31687
N     1.67416   0.11727   0.01426
C     1.54515   1.53788   0.39812
C     0.59687  -0.72982   0.16379
C     0.91754  -2.18955   0.15204
C    -0.77412  -0.26389   0.06768
C    -1.82478  -0.97891   0.71017
C    -3.15303  -0.57192   0.62340
C    -3.51060   0.56981  -0.10819
C    -2.50121   1.28086  -0.76680
C    -1.16966   0.87149  -0.69511
H     4.01375   1.50899  -0.86303
H     4.37321   0.91033   0.76412
H     4.97529   0.02933  -0.65438
H     3.01498  -1.32921  -0.61646
H     1.67319   2.19138  -0.47443
H     2.32554   1.77421   1.13172
H     0.57112   1.71623   0.85644
H     1.25488  -2.54366  -0.84574
H     1.74233  -2.43102   0.85083
H     0.04331  -2.79424   0.42131
H    -1.58260  -1.85925   1.30892
H    -3.92224  -1.14849   1.14498
H    -4.55311   0.88961  -0.17148
H    -2.75516   2.15894  -1.36750
H    -0.42562   1.42267  -1.27114
