16
Generated by autodE on: 2022-10-20. E = -363.899892 Ha
C     3.37065   1.03502  -0.38164
N     2.42003   0.24524  -0.06446
C     1.56371  -0.57491   0.26699
C     0.11703  -0.34247   0.14596
C    -0.76814  -1.35205   0.56358
C    -2.14886  -1.16855   0.46465
C    -2.65750   0.02649  -0.05350
C    -1.78535   1.04009  -0.47348
C    -0.40752   0.85866  -0.37495
H     3.79720   0.99795  -1.39019
H     3.77027   1.73407   0.36143
H    -0.35616  -2.28009   0.96599
H    -2.82960  -1.95775   0.79159
H    -3.73771   0.17136  -0.13176
H    -2.18612   1.97249  -0.87813
H     0.27649   1.64649  -0.70122
