34
Generated by autodE on: 2022-10-20. E = -878.290329 Ha. Imaginary frequency = -149.0 cm-1
C    -0.32900   0.51644  -2.75085
O    -0.51454  -0.56119  -1.83785
C    -1.05097  -0.27397  -0.64034
C     0.88360   0.59140   0.35491
C     2.19492  -0.03538   0.37779
C     3.19751   0.37899   1.28022
C     4.43590  -0.25819   1.28910
C     4.69071  -1.30864   0.39729
C     3.70369  -1.72414  -0.50200
C     2.45816  -1.09484  -0.51119
N     0.45575   1.59752   0.90605
C    -0.39322   2.45072   1.34342
C    -2.01851   0.65177  -0.25931
C    -2.51883   1.78484  -0.90341
N    -2.97329   2.74150  -1.40980
C    -2.70891  -0.03707   0.95343
C    -3.51099  -1.22552   0.38917
C    -2.58959  -2.11390  -0.00280
C    -1.24278  -1.45546   0.34509
O    -1.58671  -0.72820   1.53128
H     0.22842   0.11376  -3.60566
H    -1.29596   0.91295  -3.09578
H     0.25287   1.32273  -2.27472
H     2.99239   1.19900   1.97165
H     5.20899   0.06339   1.99064
H     5.66405  -1.80484   0.40608
H     3.90491  -2.54283  -1.19626
H     1.67795  -1.40823  -1.20542
H    -0.90884   2.25746   2.29008
H    -0.48900   3.42455   0.85301
H    -3.20476   0.62415   1.67139
H    -4.59453  -1.25463   0.27445
H    -2.71060  -3.06302  -0.52353
H    -0.37123  -2.10341   0.48203
