40
Generated by autodE on: 2022-05-26. E = -1068.556909 Ha
C     3.47636   0.71391  -3.35135
N     2.70000   0.58603  -2.13399
C     1.74580  -0.33764  -1.98074
O     1.40533  -1.15465  -2.83947
C     1.06496  -0.33937  -0.61765
N     1.20250   0.86137   0.20140
C     0.54120   0.26463   1.38256
C     0.49024   1.07632   2.66443
C     1.56217   2.09667   2.88081
O    -0.39195   0.84340   3.47061
C     1.41987  -0.98841   1.50485
O     1.76787  -1.60972   2.47232
O     1.73217  -1.33136   0.23070
C    -0.81995  -0.30271   0.85636
C    -1.91511   0.76713   0.55586
O    -1.40972   1.38560  -0.64358
C    -1.37702   0.18051  -1.43227
C    -2.78007  -0.38140  -1.21814
C    -3.45773  -1.27346  -2.19737
C    -3.11843  -0.01248   0.03302
C    -4.28988  -0.36721   0.87951
C    -0.42780  -0.72796  -0.59560
H     4.32047   0.00471  -3.37173
H     3.87264   1.73458  -3.42289
H     2.83768   0.51277  -4.22202
H     2.92018   1.16805  -1.33062
H     0.58632   1.58390  -0.18457
H     1.47503   2.52861   3.88585
H     2.55216   1.63368   2.74194
H     1.47305   2.89080   2.12164
H    -1.19799  -1.10558   1.49799
H    -2.09025   1.50663   1.34478
H    -1.06102   0.38288  -2.46209
H    -3.60579  -0.76505  -3.16562
H    -2.83713  -2.16387  -2.40293
H    -4.43577  -1.61718  -1.83067
H    -3.96636  -0.93835   1.76794
H    -4.79930   0.53620   1.25658
H    -5.02224  -0.97720   0.33107
H    -0.55512  -1.78941  -0.83179
