19
Generated by autodE on: 2022-05-26. E = -386.192012 Ha
C     0.97632   2.12276  -0.87196
C     0.44125   0.91779  -0.18437
C     0.99327  -0.27328   0.09764
C     2.34519  -0.83061  -0.17182
C    -0.17324  -1.11413   0.68072
C    -1.15267  -1.40180  -0.48082
C    -1.70279  -0.21559  -0.76131
C    -1.04506   0.76649   0.23568
O    -0.90612  -0.09201   1.38559
H     0.43072   2.30393  -1.81627
H     2.04502   2.01750  -1.11143
H     0.84583   3.03093  -0.25796
H     2.81444  -1.21795   0.74936
H     2.27971  -1.68449  -0.87097
H     3.01755  -0.08007  -0.61350
H     0.09792  -1.95380   1.33175
H    -1.28225  -2.36476  -0.97442
H    -2.40553   0.05860  -1.54786
H    -1.59033   1.68860   0.46993
