21
Generated by autodE on: 2022-05-26. E = -682.313787 Ha
C    -4.53414  -0.21409   0.15250
N    -3.14051   0.16190   0.29864
C    -2.16252  -0.56594  -0.25272
O    -2.31921  -1.58334  -0.93190
C    -0.78428  -0.07094  -0.00280
N     0.29502  -0.64136  -0.47277
C     1.42642   0.04717  -0.06265
C     2.75178  -0.37692  -0.44533
C     3.90832   0.44880   0.05271
O     2.90486  -1.37817  -1.15354
C     0.98261   1.13611   0.73121
O     1.48602   2.05187   1.34151
O    -0.47561   0.99058   0.72350
H    -5.15978   0.57126   0.59150
H    -4.74366  -1.16739   0.66351
H    -4.79450  -0.33124  -0.91009
H    -2.89539   0.97698   0.85417
H     0.30050  -1.47894  -1.05894
H     3.82453   1.48414  -0.31512
H     3.89962   0.50101   1.15301
H     4.85063   0.00562  -0.29434
