40
Generated by autodE on: 2022-05-26. E = -1068.495708 Ha. Imaginary frequency = -386.8 cm-1
C     2.49599   0.48632  -3.96993
N     2.15830   0.53409  -2.55869
C     1.91005  -0.58891  -1.86728
O     1.96860  -1.72372  -2.34466
C     1.47878  -0.40884  -0.44611
N     1.41536   0.76578   0.23526
C     1.15416   0.43719   1.54586
C     0.67133   1.41502   2.50656
C     0.44204   0.94921   3.91639
O     0.42488   2.56444   2.13487
C     1.58397  -0.92557   1.73120
O     1.70928  -1.65485   2.69243
O     1.88092  -1.37874   0.43324
C    -0.98881  -0.65059   0.80705
C    -1.87242   0.59816   0.66132
O    -1.21829   1.25285  -0.44606
C    -1.30202   0.12548  -1.33991
C    -2.81422  -0.18479  -1.27584
C    -3.56800  -0.78459  -2.40760
C    -3.17469   0.10949  -0.01352
C    -4.45538  -0.06901   0.72051
C    -0.57309  -0.94257  -0.49054
H     3.48560   0.02953  -4.13187
H     1.75113  -0.10461  -4.52310
H     2.50812   1.50916  -4.36434
H     2.17404   1.43086  -2.08325
H     0.92670   1.56953  -0.16661
H     1.37094   0.53985   4.34282
H    -0.29904   0.13368   3.92702
H     0.08082   1.78770   4.52537
H    -1.04115  -1.33600   1.65163
H    -1.97602   1.26193   1.52627
H    -0.88309   0.35643  -2.32571
H    -3.12273  -1.75393  -2.69645
H    -3.52392  -0.14192  -3.30396
H    -4.62426  -0.95485  -2.15285
H    -4.79961   0.88130   1.16393
H    -5.25049  -0.45633   0.06657
H    -4.32611  -0.77724   1.55860
H    -0.36321  -1.94598  -0.86223
