12
Generated by autodE on: 2022-06-19. E = -157.299005 Ha
C    -1.59976  -0.43588  -0.27229
C    -0.62327   0.68002  -0.04902
C     0.70154   0.58322   0.14564
C     1.53160  -0.66482   0.18809
H    -1.12804  -1.42893  -0.26494
H    -2.38744  -0.42787   0.50179
H    -2.12006  -0.31372  -1.23879
H    -1.05900   1.68729  -0.04781
H     1.25736   1.51799   0.29305
H     0.94165  -1.57934   0.03262
H     2.32284  -0.63555  -0.58182
H     2.05216  -0.75678   1.15780
