33
Generated by autodE on: 2022-06-19. E = -877.463482 Ha
C    -4.97710   0.93402   0.39723
O    -3.81599   0.09971   0.39792
C    -2.62416   0.72625   0.32620
O    -2.55179   1.95374   0.29040
C    -1.48020  -0.16035   0.25864
C    -1.45383  -1.60851   0.17520
C    -2.72791  -2.41028   0.32293
O    -0.38684  -2.22786   0.00500
N    -0.21173   0.45226   0.38865
C     0.04865   1.27993   1.57811
C     0.75948   0.09582  -0.43467
C     0.38502  -0.38458  -1.73510
N     0.16976  -0.71584  -2.82823
C     2.19738   0.22353  -0.16898
C     2.73791  -0.11948   1.08597
C     4.10974  -0.01461   1.30280
C     4.95353   0.43250   0.27971
C     4.42433   0.75810  -0.97379
C     3.05562   0.64213  -1.20504
H    -4.98150   1.60152   1.27159
H    -5.83604   0.25346   0.44091
H    -5.02454   1.54109  -0.51893
H    -2.45745  -3.47410   0.32611
H    -3.40278  -2.20659  -0.52143
H    -3.27247  -2.15325   1.24074
H    -0.81677   1.93358   1.71773
H     0.94712   1.88612   1.42558
H     0.16573   0.63399   2.45825
H     2.09110  -0.49960   1.87633
H     4.52459  -0.29191   2.27399
H     6.02805   0.51638   0.45693
H     5.08134   1.09980  -1.77605
H     2.64353   0.89025  -2.18507
