33
Generated by autodE on: 2022-07-27. E = -877.457105 Ha
C    -0.82705   3.31433   0.77281
O    -0.79169   1.88788   0.80959
C    -1.93902   1.24005   0.46621
O    -2.98675   1.85300   0.31165
C    -1.76355  -0.19870   0.35046
C    -2.88638  -1.10331   0.25503
C    -2.61843  -2.57921   0.01457
O    -4.06472  -0.72134   0.32911
N    -0.44446  -0.71672   0.40430
C    -0.10835  -1.66212   1.48486
C     0.49398  -0.24645  -0.40184
C     0.05337   0.59582  -1.47838
N    -0.23244   1.23877  -2.40394
C     1.94442  -0.44819  -0.30498
C     2.77292   0.65627  -0.60583
C     4.15760   0.53473  -0.54101
C     4.73834  -0.69375  -0.20764
C     3.92683  -1.80056   0.05990
C     2.53871  -1.68577   0.01805
H    -1.08690   3.67046  -0.23567
H     0.18340   3.64922   1.03723
H    -1.55483   3.71171   1.49556
H    -1.70518  -2.77341  -0.56403
H    -3.48492  -2.99671  -0.51624
H    -2.53277  -3.10573   0.97878
H     0.81259  -1.32239   1.97854
H    -0.93025  -1.65533   2.20516
H     0.04004  -2.67374   1.09116
H     2.32462   1.61635  -0.86744
H     4.78621   1.40112  -0.75569
H     5.82538  -0.79123  -0.16660
H     4.37731  -2.76635   0.29708
H     1.92806  -2.56865   0.19141
