23
Generated by autodE on: 2022-06-12. E = -998.312657 Ha
Cl   -0.78839  -2.51403   0.23521
C    -1.08735  -0.89263  -0.26260
C    -0.27232   0.17941  -0.32603
C     1.14012   0.38568  -0.03380
C     2.06242  -0.68301   0.00046
C     3.40572  -0.45407   0.29378
C     3.86282   0.84136   0.56330
C     2.96157   1.90958   0.53113
C     1.61680   1.68729   0.23103
C    -1.27280   1.33095  -0.65580
C    -2.13801   1.56283   0.60228
C    -2.92210   0.48373   0.68168
C    -2.51845  -0.38214  -0.53528
O    -2.21261   0.63737  -1.49722
H     1.72450  -1.69636  -0.21467
H     4.10375  -1.29458   0.30930
H     4.91635   1.01633   0.79325
H     3.30698   2.92506   0.73893
H     0.92796   2.53384   0.21404
H    -0.85087   2.20987  -1.15299
H    -2.04417   2.41094   1.27950
H    -3.64887   0.19799   1.44105
H    -3.23833  -1.11938  -0.90601
