20
Generated by autodE on: 2022-07-27. E = -494.845980 Ha
C     1.75325   0.27690   2.38732
N     1.23830   0.48528   1.21587
C     0.22549  -0.04015   0.43168
C    -0.65306  -1.11166   0.79094
C    -0.52664  -1.77585   2.14155
O    -1.54297  -1.52343   0.00762
C     0.18371   0.68946  -0.85303
O     0.99908   1.62073  -1.06567
N    -0.73717   0.32498  -1.75859
C    -0.85297   0.98322  -3.04072
H     1.38817  -0.49939   3.05384
H     2.58333   0.91803   2.68532
H     1.66279   1.25016   0.65248
H    -1.29424  -2.55652   2.21926
H    -0.66786  -1.05002   2.95916
H     0.46670  -2.23580   2.27041
H    -1.34796  -0.44517  -1.47562
H    -1.08513   2.05547  -2.92960
H    -1.66184   0.50981  -3.61126
H     0.07902   0.90426  -3.62443
