43
Generated by autodE on: 2022-06-12. E = -1493.156360 Ha. Imaginary frequency = -305.5 cm-1
C    -3.48826   2.27122  -1.86280
N    -3.13390   1.37139  -0.78786
C    -2.10346   1.62407   0.03108
O    -1.47902   2.70661   0.01678
C    -1.68961   0.54567   0.96665
C    -2.52994  -0.59670   1.27712
C    -2.41446  -1.29212   2.61225
O    -3.38741  -1.00263   0.46829
N    -0.63799   0.95458   1.75360
C     0.32651   0.17003   2.22115
C     1.09167  -0.64575   0.27610
C     2.18298   0.31103   0.04192
C     1.92694   1.63645  -0.36899
C     2.97594   2.53096  -0.58081
C     4.30330   2.12947  -0.39062
C     4.56954   0.82166   0.02405
C     3.52261  -0.07704   0.24338
C     1.35617  -2.11509   0.72183
C     1.75812  -2.91086  -0.53716
C     0.63561  -3.01737  -1.25653
C    -0.43707  -2.28429  -0.41921
O     0.00897  -2.58096   0.90940
C    -0.07479  -0.79059  -0.48776
Cl   -0.38912   0.00603  -2.00949
H    -3.64716   3.29294  -1.48702
H    -4.41617   1.92025  -2.33164
H    -2.69860   2.31294  -2.63317
H    -3.51261   0.42394  -0.73600
H    -1.73472  -2.15160   2.51780
H    -2.04110  -0.63737   3.41125
H    -3.41037  -1.67417   2.87606
H    -0.38786   1.92846   1.54309
H     1.17827   0.66637   2.68790
H     0.08689  -0.84504   2.52053
H     0.90005   1.97528  -0.50608
H     2.75366   3.55381  -0.89502
H     5.12211   2.83289  -0.55861
H     5.60043   0.49524   0.18179
H     3.75609  -1.09085   0.57329
H     1.96068  -2.25109   1.62484
H     2.76845  -3.24277  -0.77305
H     0.47637  -3.45254  -2.24226
H    -1.48961  -2.54157  -0.57691
