71
Generated by autodE on: 2022-06-13. E = -1782.358541 Ha
C     5.22353   0.68069  11.83746
C     6.46840  -0.02102  12.30613
O     7.32705   0.59616  12.91511
C     6.72203  -1.48620  11.87356
C     5.45852  -2.38295  11.86230
C     5.61741  -3.76088  11.26740
O     4.36861  -1.98742  12.23344
N     7.15007  -1.41768  10.46017
C     8.57370  -1.76555  10.32400
C     9.41987  -0.63091   9.76386
C    10.10989  -0.80369   8.55694
C    10.89071   0.22686   8.02452
C    10.98449   1.45049   8.69306
C    10.28599   1.63772   9.89137
C     9.50728   0.60664  10.42042
C     8.94203  -2.24593  11.71563
C     7.92161  -2.12355  12.58673
C     7.92609  -2.51254  14.08401
C     6.47760  -2.44813  14.65098
C     5.67217  -3.59730  14.72513
C     4.35180  -3.53527  15.17618
C     3.79991  -2.31783  15.57854
C     4.59519  -1.17003  15.54257
C     5.91603  -1.23691  15.09313
C     8.42676  -3.95738  14.31550
C     8.31607  -4.95542  13.33641
C     8.70868  -6.27184  13.59042
C     9.21368  -6.62745  14.84332
C     9.31357  -5.64921  15.83639
C     8.92174  -4.33367  15.57472
C     8.80049  -1.49280  14.89427
C    10.33051  -1.46602  14.73796
C    10.88920  -0.76903  13.48051
C    11.35047  -1.70564  12.36234
C    10.30701  -2.79172  12.04605
C    10.83180  -3.78239  11.02158
F    11.85838  -4.49496  11.52911
F     9.89129  -4.67601  10.64296
F    11.29049  -3.20812   9.89077
H     4.84506   0.29167  10.88281
H     4.43619   0.51364  12.58840
H     5.42890   1.75770  11.76819
H     6.60208  -3.93345  10.82092
H     5.43914  -4.50221  12.06036
H     4.83696  -3.90248  10.50458
H     6.91655  -0.53375  10.01481
H     8.67565  -2.61004   9.62013
H    10.04146  -1.76041   8.03465
H    11.42480   0.07301   7.08365
H    11.59505   2.25734   8.28055
H    10.34975   2.59265  10.41878
H     8.96803   0.76349  11.35399
H     6.06981  -4.56176  14.41503
H     3.75243  -4.44831  15.20727
H     2.76546  -2.26479  15.92593
H     4.18865  -0.20917  15.86733
H     6.50081  -0.32126  15.08240
H     7.93046  -4.70326  12.35234
H     8.61864  -7.02036  12.79949
H     9.52457  -7.65523  15.04490
H     9.70020  -5.90810  16.82516
H     9.00000  -3.59746  16.37432
H     8.43198  -0.48901  14.66042
H     8.57217  -1.65804  15.95673
H    10.69561  -0.91335  15.61804
H    10.75960  -2.47642  14.83899
H    11.75593  -0.15114  13.76350
H    10.13614  -0.06929  13.09014
H    12.27649  -2.21820  12.66871
H    11.58556  -1.12400  11.45919
H    10.20945  -3.40531  12.94739
