28
Generated by autodE on: 2022-06-13. E = -670.623007 Ha
C    -4.01192   0.77473   1.01585
C    -2.51084   0.80077   0.81678
O    -1.87986   1.77359   1.28009
C    -1.82631  -0.25633   0.11795
N    -0.43925  -0.19572  -0.04763
C     0.48059   0.65553   0.30872
C     1.88845   0.48228   0.00284
C     2.40473  -0.61575  -0.71897
C     3.77047  -0.70958  -0.96984
C     4.64522   0.28415  -0.50928
C     4.14530   1.37664   0.20615
C     2.77812   1.47633   0.46049
C    -2.33615  -1.46916  -0.49852
C    -3.79785  -1.83560  -0.49720
O    -1.53023  -2.24668  -1.05598
H    -4.28763   1.68131   1.57011
H    -4.55212   0.76405   0.05827
H    -4.33339  -0.10595   1.59021
H    -0.15770  -1.04161  -0.57446
H     0.15481   1.53262   0.86313
H     1.74328  -1.40292  -1.08834
H     4.15946  -1.56334  -1.52896
H     5.71598   0.20393  -0.70994
H     4.82338   2.15309   0.56686
H     2.38168   2.32737   1.01914
H    -3.90857  -2.79197  -1.02401
H    -4.18597  -1.94161   0.52584
H    -4.40485  -1.07274  -1.00526
