71
Generated by autodE on: 2022-06-13. E = -1782.270167 Ha. Imaginary frequency = -295.8 cm-1
C     3.91193  -1.16534  12.13441
C     5.19574  -0.66077  11.53983
O     5.40795   0.55858  11.48933
C     6.19199  -1.57205  10.93588
C     6.05581  -3.01266  10.71444
C     5.18443  -3.85993  11.61033
O     6.67495  -3.56260   9.79359
N     7.13484  -0.86551  10.23597
C     8.33657  -1.28993   9.80822
C     9.33132  -0.24274   9.50549
C    10.10314  -0.29912   8.33277
C    11.04571   0.69272   8.05909
C    11.23382   1.75138   8.95452
C    10.46739   1.81875  10.12331
C     9.52350   0.82929  10.39750
C     8.99637  -2.31062  11.60287
C     8.16014  -2.21776  12.52826
C     7.95383  -2.41887  13.99328
C     6.61668  -1.85709  14.51899
C     5.66403  -2.64583  15.17769
C     4.50254  -2.07453  15.71289
C     4.27297  -0.70262  15.59997
C     5.20432   0.09111  14.92252
C     6.35601  -0.48285  14.38472
C     8.10826  -3.92290  14.31494
C     8.03172  -4.91268  13.32542
C     8.15672  -6.26872  13.64715
C     8.36643  -6.66453  14.96905
C     8.44957  -5.68770  15.96663
C     8.32261  -4.33578  15.64186
C     9.09219  -1.60514  14.72003
C    10.55797  -1.90616  14.36001
C    11.12909  -1.10783  13.15977
C    11.47610  -1.90866  11.89768
C    10.36803  -2.90098  11.51240
C    10.67320  -3.66716  10.23947
F     9.67759  -4.52227   9.92375
F    11.78934  -4.40959  10.39391
F    10.87782  -2.89607   9.15550
H     3.33890  -1.72376  11.37861
H     4.08701  -1.83723  12.98245
H     3.32566  -0.30335  12.47334
H     5.50116  -4.90428  11.49559
H     5.24787  -3.56733  12.66468
H     4.13221  -3.78740  11.29544
H     7.05488   0.13061  10.47073
H     8.35980  -2.22431   9.25639
H     9.95846  -1.12512   7.63518
H    11.63727   0.64024   7.14218
H    11.97873   2.52203   8.74300
H    10.61503   2.63830  10.83018
H     8.95140   0.87023  11.32717
H     5.82122  -3.71845  15.28402
H     3.77602  -2.71313  16.22120
H     3.36936  -0.25631  16.02159
H     5.02750   1.16181  14.79759
H     7.05721   0.14950  13.83856
H     7.88638  -4.62911  12.28507
H     8.09300  -7.01586  12.85226
H     8.46746  -7.72271  15.22148
H     8.61336  -5.97807  17.00729
H     8.37685  -3.59688  16.44206
H     8.90642  -0.53767  14.54104
H     8.94074  -1.75582  15.79808
H    11.15101  -1.65371  15.25225
H    10.70183  -2.99010  14.22249
H    12.04643  -0.58480  13.47262
H    10.41540  -0.31575  12.88750
H    12.40120  -2.48665  12.05150
H    11.66231  -1.21073  11.06688
H    10.37267  -3.70476  12.26689
