57
Generated by autodE on: 2022-06-27. E = -1192.094388 Ha. Imaginary frequency = -300.6 cm-1
C    -0.79173   0.12607  -7.38431
N    -0.46582   0.61174  -6.05728
C     0.78998   0.95968  -5.72327
O     1.74878   0.80446  -6.49242
C     0.99382   1.62502  -4.39063
C     0.47936   2.98555  -4.16215
C     0.91663   3.72046  -3.03678
C     0.42856   5.00055  -2.78380
C    -0.51715   5.58248  -3.63648
C    -0.96171   4.86516  -4.75054
C    -0.47074   3.58529  -5.01504
C    -0.22772   0.32670  -2.83116
C     0.67094  -0.16162  -1.89218
C     0.95106  -1.64026  -1.77315
C     1.09473   0.72057  -0.81565
C     1.95694   0.39729   0.18249
C     2.38201   1.32276   1.20990
C     3.41919   1.14625   2.06774
C     3.75873   2.18411   3.09888
C     4.32347  -0.05503   2.04504
C     2.72880   0.24684  -3.47694
C     2.57940  -0.97322  -4.30700
C     3.80843   0.34791  -2.48561
O     4.32325  -0.68444  -2.00682
N     4.18438   1.59257  -2.11177
C     5.15071   1.85179  -1.06713
O     2.16944   1.41078  -3.78648
H    -0.48776   0.84998  -8.15716
H    -0.28491  -0.82900  -7.59564
H    -1.87573  -0.02825  -7.44857
H    -1.20842   0.73887  -5.37854
H     1.63871   3.27675  -2.35261
H     0.78488   5.54652  -1.90686
H    -0.90356   6.58362  -3.43278
H    -1.69548   5.30628  -5.42941
H    -0.82868   3.05594  -5.89743
H    -0.70768  -0.36371  -3.52701
H    -0.74308   1.26870  -2.64586
H     2.01258  -1.85682  -1.58894
H     0.63393  -2.18227  -2.67338
H     0.38600  -2.05305  -0.91890
H     0.69619   1.74086  -0.84646
H     2.38331  -0.60790   0.20115
H     1.82389   2.26497   1.27095
H     4.77633   2.58216   2.93397
H     3.76426   1.74366   4.11239
H     3.05061   3.02595   3.09051
H     5.37784   0.26815   2.08638
H     4.19805  -0.67491   1.14757
H     4.16005  -0.68984   2.93467
H     1.52978  -1.20704  -4.52588
H     3.03595  -1.81875  -3.78216
H     3.08819  -0.84283  -5.27879
H     3.68531   2.37595  -2.51797
H     5.80575   2.68595  -1.35881
H     5.76532   0.95650  -0.91329
H     4.66449   2.10588  -0.11082
