49
Generated by autodE on: 2022-06-23. E = -1331.963877 Ha
C    -1.47826   3.59622  -1.32832
N    -1.60707   2.31680  -0.65884
C    -0.78071   1.96764   0.33957
O     0.10363   2.71125   0.79550
N    -0.98572   0.71713   0.91378
N    -1.98310  -0.11975   0.34152
C    -3.27593  -0.01282   1.01326
C    -1.43046  -1.46346   0.15595
C    -1.94461  -2.42932   1.15378
N    -2.40304  -3.18270   1.90642
C    -1.83951  -2.09935  -1.22948
C    -2.42672  -1.18688  -2.26054
O    -1.79466  -3.30706  -1.34030
C     0.12402  -1.25785   0.34978
C     0.87976  -2.52562   0.75329
C     0.71854  -0.80698  -0.99838
O     0.42788  -1.42742  -2.01822
C     1.66451   0.29298  -1.06144
O     2.17548   0.61642  -2.28362
C     3.23303  -0.23294  -2.74709
C     2.04180   1.01491   0.04042
O     2.96801   1.94823  -0.11158
C     3.29286   2.90978   0.90790
C     1.48789   0.65163   1.37351
O     2.13341   0.83127   2.38683
C     0.13686  -0.09801   1.41049
C    -0.11831  -0.53388   2.85137
H    -1.49373   4.41991  -0.59982
H    -0.53980   3.66371  -1.90317
H    -2.32303   3.72012  -2.01693
H    -2.21368   1.59333  -1.03502
H    -3.64209   1.01800   0.91778
H    -3.98971  -0.67572   0.50477
H    -3.22825  -0.27976   2.08304
H    -3.44590  -0.91859  -1.93323
H    -1.86027  -0.25500  -2.36655
H    -2.48610  -1.72036  -3.21794
H     0.74643  -3.29585  -0.01838
H     1.95273  -2.30219   0.84339
H     0.52418  -2.92371   1.71143
H     3.53604   0.14957  -3.73064
H     4.09198  -0.19297  -2.05767
H     2.89068  -1.27418  -2.85010
H     3.83117   3.70847   0.38275
H     3.93981   2.45845   1.67024
H     2.38191   3.31131   1.36699
H    -0.14249   0.36205   3.48505
H     0.67909  -1.19343   3.21542
H    -1.07849  -1.04928   2.95599
