23
Generated by autodE on: 2022-06-23. E = -642.471406 Ha
C     3.63349  -1.23361  -0.83301
N     2.83993  -0.19656  -0.20769
C     1.56915   0.03060  -0.57273
O     0.99639  -0.55322  -1.49341
N     1.02708   1.15223   0.10448
N    -0.24387   1.26632   0.21789
C    -0.72133   2.65950   0.37533
C    -1.17128   0.26460   0.22662
C    -2.52373   0.63806   0.03255
N    -3.64556   0.90751  -0.13849
C    -0.86493  -1.10962   0.66284
C    -2.00807  -2.08844   0.64416
O     0.24926  -1.42048   1.07151
H     3.92432  -0.96179  -1.86161
H     4.54323  -1.39214  -0.24150
H     3.06692  -2.17575  -0.87712
H     3.24434   0.39255   0.51296
H     0.16013   3.28592   0.53561
H    -1.41442   2.72064   1.22221
H    -1.22991   2.95683  -0.55239
H    -2.41445  -2.17389  -0.37653
H    -2.82795  -1.74854   1.29615
H    -1.64801  -3.06670   0.98592
