26
Generated by autodE on: 2022-06-23. E = -689.456723 Ha
C     2.59037   2.29264   0.20412
O     2.22608   0.97993  -0.24478
C     0.96089   0.53439  -0.10599
C     0.75630  -0.77757   0.20961
O     1.82404  -1.55419   0.48733
C     1.86521  -2.91644   0.04024
C    -0.62140  -1.29267   0.40677
O    -0.79659  -2.41982   0.86067
C    -1.77957  -0.40864   0.08337
C    -3.15235  -0.98869   0.22386
C    -1.57592   0.88285  -0.27442
C    -2.70982   1.81681  -0.56228
C    -0.18962   1.40638  -0.45196
O     0.00584   2.52902  -0.90834
H     3.65032   2.23166   0.48793
H     1.99835   2.59147   1.08193
H     2.46512   3.03475  -0.59528
H     2.92726  -3.15256  -0.11518
H     1.32561  -3.03924  -0.91057
H     1.44354  -3.59476   0.79368
H    -3.72700  -0.44801   0.99454
H    -3.10896  -2.04884   0.49962
H    -3.71616  -0.88653  -0.71767
H    -3.31358   1.44730  -1.40822
H    -2.34516   2.82146  -0.80628
H    -3.38914   1.88282   0.30306
