49
Generated by autodE on: 2022-06-23. E = -1331.913951 Ha. Imaginary frequency = -398.9 cm-1
C    -2.04482   4.24445   1.09409
N    -1.47756   2.90888   1.09929
C    -2.04253   1.92939   0.37315
O    -3.09341   2.07961  -0.25891
N    -1.33032   0.70912   0.29411
N    -2.04763  -0.37209   0.00049
C    -3.26587  -0.72770   0.74901
C    -1.28530  -1.32774  -0.60054
C    -1.71410  -2.68892  -0.50689
N    -2.03536  -3.80330  -0.43244
C    -0.50367  -1.03070  -1.85594
C    -0.56014   0.32909  -2.48978
O     0.11251  -1.95399  -2.36746
C     0.32908  -1.26423   1.08444
C    -0.10723  -2.39938   1.97428
C     1.52241  -1.57342   0.26731
O     1.95019  -2.72174   0.16987
C     2.20101  -0.45609  -0.45366
O     3.07107  -0.64297  -1.44554
C     3.36572  -1.91206  -2.04634
C     1.98426   0.83530  -0.04746
O     2.68935   1.82770  -0.63924
C     2.03791   3.07981  -0.89477
C     1.12555   1.11408   1.09934
O     1.21670   2.18251   1.70733
C     0.07930   0.09768   1.49592
C    -0.50348   0.30955   2.87463
H    -3.09404   4.22923   1.42504
H    -1.46639   4.87009   1.78501
H    -2.01021   4.69927   0.09024
H    -0.55705   2.77352   1.51457
H    -3.73750   0.19170   1.10474
H    -3.95546  -1.24832   0.07311
H    -3.02237  -1.37562   1.60157
H     0.31517   0.91199  -2.16621
H    -0.48608   0.18794  -3.57708
H    -1.46438   0.89114  -2.23086
H    -0.00130  -3.36256   1.46337
H     0.53451  -2.42964   2.87262
H    -1.14237  -2.29133   2.31469
H     3.95142  -2.54251  -1.36553
H     3.96217  -1.66743  -2.93482
H     2.44753  -2.43093  -2.34542
H     0.99527   2.92208  -1.21081
H     2.06113   3.73007  -0.01028
H     2.59613   3.55032  -1.71523
H    -0.71790   1.36443   3.07172
H     0.22151  -0.03350   3.63069
H    -1.42646  -0.26474   3.00888
