23
Generated by autodE on: 2022-06-18. E = -351.521384 Ha
C     2.24617   2.41541   1.84894
C     1.82112   1.22782   1.36442
C     2.59792  -0.04076   1.60865
C     0.58599   1.15699   0.58612
C     0.05633   0.03192   0.04341
C    -1.17414   0.01644  -0.72097
C    -1.76320  -1.06199  -1.29692
C    -3.04852  -0.91943  -2.06190
C    -1.21698  -2.46020  -1.23604
H     3.16646   2.49710   2.43398
H     1.68024   3.33488   1.66997
H     1.98474  -0.78577   2.14250
H     3.50100   0.15399   2.20407
H     2.90389  -0.50875   0.65819
H     0.05750   2.10670   0.43948
H     0.57787  -0.91862   0.18434
H    -1.67146   0.98689  -0.83827
H    -3.83785  -1.55555  -1.62237
H    -2.92441  -1.26493  -3.10404
H    -3.40893   0.11958  -2.08010
H    -1.04123  -2.84581  -2.25590
H    -0.27876  -2.54379  -0.67264
H    -1.95633  -3.13960  -0.77622
