21
Generated by autodE on: 2022-07-27. E = -420.723347 Ha
C     0.26587  -0.18846   2.26324
N     0.66898   0.94795   1.48125
N     0.74946   0.81112   0.19826
C     1.56643   1.86198  -0.44616
C     0.26617  -0.19033  -0.59857
C     1.02640  -0.52662  -1.85160
C    -1.03850  -0.78895  -0.41214
C    -2.09229  -0.10217   0.43137
O    -1.38120  -1.78576  -1.07698
H     0.85188  -0.16061   3.19548
H     0.43048  -1.14646   1.73432
H    -0.79254  -0.16191   2.56597
H     1.63121   2.69896   0.25523
H     2.57395   1.46912  -0.63891
H     1.10428   2.17456  -1.38929
H     0.67820  -1.50670  -2.20152
H     0.85262   0.19647  -2.66849
H     2.11186  -0.58396  -1.68078
H    -2.99810  -0.02763  -0.18938
H    -1.81168   0.89699   0.78632
H    -2.34857  -0.72726   1.30188
