44
Generated by autodE on: 2022-06-18. E = -772.219071 Ha. Imaginary frequency = -414.3 cm-1
C    -4.09769   0.98536  -1.45881
C    -3.03370  -0.05105  -1.73426
O    -3.34573  -1.20334  -2.00457
C    -1.61570   0.44555  -1.93135
C    -1.38793   0.64065  -3.42155
C    -0.36393  -1.11542  -1.48476
C     0.06301  -1.14779  -0.14578
C    -0.65281  -2.03182   0.84167
C     1.34308  -0.58785   0.21876
C     1.99173  -0.73955   1.41085
C     3.29221  -0.16648   1.68035
C     4.02556  -0.25841   2.82067
C     5.37113   0.40345   2.93298
C     3.58533  -1.00694   4.04821
N    -1.06772   1.28749   0.23858
C    -2.16957   0.65926   0.91131
N    -1.10020   1.40236  -1.07287
C    -0.01487   2.24577  -1.58585
H    -4.50007   1.28452  -2.44252
H    -3.71648   1.88794  -0.96986
H    -4.91865   0.54098  -0.87854
H    -0.32669   0.76341  -3.67230
H    -1.75707  -0.25163  -3.94539
H    -1.94500   1.51135  -3.80582
H    -1.07738  -1.87381  -1.81565
H     0.37793  -0.82373  -2.23362
H    -0.75090  -1.57036   1.83614
H    -0.09371  -2.97403   0.99012
H    -1.65833  -2.29726   0.48540
H     1.84824  -0.00726  -0.56318
H     1.50939  -1.31515   2.20588
H     3.72892   0.40967   0.85397
H     5.39123   1.12532   3.77040
H     5.64909   0.93787   2.01200
H     6.16186  -0.33736   3.15393
H     3.55040  -0.33260   4.92315
H     2.59861  -1.47760   3.94400
H     4.31415  -1.79763   4.30358
H    -2.99927   1.37427   1.06968
H    -2.60075  -0.23314   0.42829
H    -1.82015   0.35952   1.90897
H    -0.37097   2.85584  -2.42524
H     0.83110   1.62659  -1.92149
H     0.31013   2.89469  -0.76799
