41
Generated by autodE on: 2022-05-30. E = -1131.627663 Ha
C     2.01874   3.54670  -0.68518
O     1.76373   2.20810  -0.22891
C     0.68758   1.59848  -0.71963
O    -0.04403   2.09967  -1.54961
C     0.41403   0.24980  -0.01139
C     1.68141  -0.58634   0.09758
C     1.91809  -1.39879   1.21252
C     3.03703  -2.23612   1.25356
C     3.92554  -2.27880   0.17593
C     3.68677  -1.47887  -0.94660
C     2.57252  -0.63832  -0.98395
C    -0.71478  -0.49061  -0.78157
C    -0.74208  -2.04558  -0.65538
C    -1.85878  -2.52763  -1.56889
C    -3.00041  -2.22127  -0.93966
C    -2.56485  -1.55477   0.35755
O    -1.33297  -2.21699   0.65014
C    -2.03459  -0.14186  -0.04475
F    -2.96103   0.51965  -0.83104
C    -1.62119   0.74314   1.15254
C    -1.98430   2.16461   0.92166
N    -2.19915   3.29920   0.80950
N    -0.19690   0.52571   1.30080
C     0.48433   1.35386   2.27962
H     2.19795   3.55209  -1.76959
H     1.16359   4.19564  -0.44897
H     2.91362   3.88193  -0.14904
H     1.21450  -1.38590   2.04418
H     3.21089  -2.86150   2.13250
H     4.79926  -2.93393   0.20806
H     4.37139  -1.50819  -1.79751
H     2.39433  -0.02477  -1.87066
H    -0.74089  -0.16594  -1.82510
H     0.22439  -2.55115  -0.72567
H    -1.71499  -2.94140  -2.56713
H    -4.02778  -2.32183  -1.28755
H    -3.25110  -1.56516   1.21118
H    -2.14900   0.44581   2.07438
H     0.00529   1.20973   3.26047
H     0.45837   2.43376   2.04011
H     1.53447   1.04785   2.36208
