28
Generated by autodE on: 2022-07-26. E = -724.736214 Ha
C    -0.64238   3.41893  -1.30347
O    -0.63995   2.33751  -0.36646
C    -0.01306   1.20954  -0.74294
O     0.64923   1.14467  -1.76976
C    -0.10649   0.11337   0.23072
C     0.95238  -0.91138   0.21126
C     0.63309  -2.28136   0.29262
C     1.63671  -3.25113   0.27473
C     2.97825  -2.87393   0.16316
C     3.30869  -1.51693   0.06709
C     2.30889  -0.54599   0.09111
N    -1.11569   0.03118   1.13469
C    -0.88326  -0.66664   2.42350
C    -2.36755   0.51441   0.99234
C    -2.90568   0.89735  -0.24104
N    -3.39768   1.19344  -1.26119
H    -1.08199   3.10083  -2.25957
H    -1.25525   4.20795  -0.85198
H     0.37972   3.78700  -1.47574
H    -0.41185  -2.59099   0.35306
H     1.36714  -4.30808   0.33696
H     3.76355  -3.63323   0.14640
H     4.35459  -1.21314  -0.01933
H     2.57809   0.50968   0.02659
H     0.18909  -0.71806   2.62754
H    -1.38243  -0.08505   3.20804
H    -1.31662  -1.67322   2.39139
H    -2.99584   0.55533   1.88085
