41
Generated by autodE on: 2022-05-30. E = -1131.517042 Ha. Imaginary frequency = -274.6 cm-1
C     1.26404   3.82792  -1.17188
O     1.14812   2.72115  -0.26615
C     0.94580   1.51523  -0.81068
O     0.98560   1.31617  -2.00890
C     0.80144   0.45770   0.24619
C     1.89716  -0.53566   0.25962
C     1.77600  -1.80152   0.87449
C     2.82494  -2.72017   0.84250
C     4.02296  -2.40983   0.19321
C     4.16150  -1.16259  -0.42313
C     3.11754  -0.23973  -0.38916
C    -1.18139  -0.61164  -0.99121
C    -1.09769  -2.06585  -0.50407
C    -2.33773  -2.80922  -1.05171
C    -3.37679  -2.32262  -0.36404
C    -2.75555  -1.27978   0.59463
O    -1.49424  -1.90037   0.87943
C    -2.25897  -0.12943  -0.29751
F    -3.15347   0.76597  -0.75290
C    -1.16147   1.38748   1.29214
C    -1.46842   2.46171   0.43131
N    -1.81856   3.35248  -0.23895
N     0.04026   0.73031   1.34061
C     0.28811   0.07800   2.64249
H     2.13519   3.69320  -1.82850
H     0.35199   3.91821  -1.77817
H     1.39233   4.71801  -0.54563
H     0.85125  -2.08275   1.37018
H     2.69720  -3.69232   1.32418
H     4.84100  -3.13321   0.16664
H     5.09308  -0.90018  -0.92976
H     3.26518   0.72941  -0.86735
H    -0.82028  -0.26171  -1.95403
H    -0.13657  -2.57914  -0.59629
H    -2.32236  -3.52895  -1.86997
H    -4.44081  -2.53609  -0.45982
H    -3.31197  -1.01378   1.49923
H    -1.71571   1.39722   2.23160
H    -0.30705  -0.83774   2.73221
H    -0.00386   0.78221   3.42965
H     1.35225  -0.14786   2.74819
