47
Generated by autodE on: 2022-06-13. E = -1094.720285 Ha
C     4.59529   2.70645   2.88184
O     3.71446   2.67710   1.74306
C     2.82100   1.69966   1.69898
O     2.68279   0.84041   2.53726
C     2.00944   1.73604   0.39013
C     1.78262   3.12260  -0.04994
N     1.58849   4.19859  -0.43663
C     0.72911   1.03484   0.49863
C    -0.17580   0.32579   0.11885
C    -0.94706  -0.62505  -0.68727
C    -2.43254  -0.25935  -0.80927
C    -3.30559  -1.13568  -1.47223
C    -4.65455  -0.81220  -1.62891
C    -5.15424   0.39191  -1.11965
C    -4.29197   1.26736  -0.45557
C    -2.93927   0.94348  -0.30305
C    -0.81886  -2.02456  -0.05647
C    -0.49746  -3.16532  -0.80183
C    -0.43879  -4.42245  -0.18774
C    -0.69974  -4.55564   1.17718
C    -1.02237  -3.42002   1.92920
C    -1.08004  -2.16853   1.31557
C    -0.27468  -0.50057  -2.09805
C     1.26415  -0.61388  -2.14804
C     2.10566   0.68746  -2.02812
C     2.84492   0.96649  -0.70724
H     4.01177   2.80613   3.80752
H     5.19584   1.78678   2.91694
H     5.23986   3.58044   2.73831
H    -2.92887  -2.08313  -1.86280
H    -5.32039  -1.50637  -2.14738
H    -6.21091   0.64317  -1.23791
H    -4.67040   2.20915  -0.05071
H    -2.27243   1.63465   0.21643
H    -0.29146  -3.09056  -1.86934
H    -0.18469  -5.30085  -0.78591
H    -0.65147  -5.53716   1.65453
H    -1.22942  -3.50980   2.99833
H    -1.33515  -1.28626   1.90792
H    -0.72770  -1.26245  -2.74851
H    -0.58230   0.47230  -2.51129
H     1.50233  -1.05562  -3.12782
H     1.61373  -1.34908  -1.40537
H     2.89716   0.63174  -2.79095
H     1.49566   1.56367  -2.30676
H     3.74764   1.56625  -0.89352
H     3.16288   0.02107  -0.24215
