76
Generated by autodE on: 2022-06-13. E = -1951.981619 Ha. Imaginary frequency = -280.1 cm-1
C    -2.37457   3.23827 -18.88940
O    -1.99054   2.25175 -17.92026
C    -0.88368   1.54947 -18.18849
O    -0.19828   1.74672 -19.16819
C    -0.70219   0.54135 -17.09343
C     1.56051   1.02440 -16.81764
C     2.07433   0.35320 -17.72639
C     3.28272   0.08264 -18.54295
C     3.70136  -1.32513 -18.46479
N     4.12382  -2.39779 -18.34805
C     3.08546   0.52567 -20.00889
O     2.59000   1.58762 -20.30369
O     3.61031  -0.33565 -20.86750
C     3.49145  -0.01356 -22.26379
C     4.47553   0.94375 -17.98118
C     4.68131   0.76770 -16.46668
C     4.36759   2.00915 -15.61775
C     3.05348   2.75565 -15.86750
C     1.70383   1.97418 -15.67070
C     0.53628   2.98604 -15.68384
C     0.52439   4.03087 -16.62210
C    -0.52630   4.95042 -16.66294
C    -1.60099   4.83343 -15.77804
C    -1.61482   3.78218 -14.85838
C    -0.55501   2.87228 -14.80965
C     1.79994   1.21290 -14.33952
C     1.90837  -0.18079 -14.27755
C     2.07023  -0.83614 -13.05088
C     2.13590  -0.10414 -11.86466
C     2.04567   1.29210 -11.91612
C     1.88286   1.94127 -13.14022
C     0.23515  -1.30621 -18.27806
C    -0.06360  -0.92431 -19.68049
O     0.73796  -0.92660 -20.59532
O    -1.36506  -0.64596 -19.85565
C    -1.75254  -0.16343 -21.14904
C     0.90965  -2.59596 -18.04790
O     1.27315  -3.01289 -16.95850
O     1.09235  -3.29128 -19.18082
C     1.76358  -4.55150 -19.06705
N    -0.50706  -0.77704 -17.24762
C    -0.88927  -1.59265 -16.06962
H    -3.22267   3.77609 -18.45187
H    -1.54569   3.92952 -19.08797
H    -2.67509   2.74312 -19.82476
H    -1.27931   0.80042 -16.20905
H     3.99276   0.94039 -22.47923
H     3.97919  -0.83334 -22.80259
H     2.43012   0.05036 -22.54009
H     5.37414   0.66334 -18.54984
H     4.24254   1.98573 -18.23853
H     5.72986   0.49099 -16.27904
H     4.08528  -0.08433 -16.10686
H     5.16862   2.75040 -15.78185
H     4.43524   1.72403 -14.55602
H     3.05988   3.17323 -16.88281
H     3.02412   3.61643 -15.18175
H     1.33388   4.12598 -17.34576
H    -0.50707   5.75659 -17.39985
H    -2.42555   5.54920 -15.81218
H    -2.45418   3.66708 -14.16834
H    -0.58875   2.05893 -14.08497
H     1.88158  -0.76726 -15.19496
H     2.14789  -1.92591 -13.03099
H     2.26186  -0.61359 -10.90641
H     2.10342   1.87970 -10.99666
H     1.81622   3.03061 -13.16311
H    -1.60497  -0.94348 -21.90979
H    -1.16751   0.72713 -21.41591
H    -2.81608   0.08998 -21.06921
H     1.18521  -5.23893 -18.43243
H     2.76837  -4.41460 -18.64583
H     1.83098  -4.94660 -20.08757
H    -1.78764  -1.14384 -15.63347
H    -1.11747  -2.61321 -16.38770
H    -0.08762  -1.60586 -15.32470
