53
Generated by autodE on: 2022-06-02. E = -1260.866587 Ha
C     7.56574  -4.44409  -3.10306
O     6.14194  -4.23415  -3.15739
C     5.37261  -5.20923  -2.70133
O     5.77853  -6.26456  -2.26782
C     3.85142  -4.92258  -2.88519
C     3.63170  -3.51592  -3.28499
N     3.44660  -2.44321  -3.68351
C     3.09878  -5.36924  -1.60944
C     2.58594  -6.58769  -1.86843
C     2.84946  -7.00994  -3.28940
N     3.30405  -5.78709  -3.93093
C     4.09890  -5.96113  -5.13448
C     1.88089  -7.59321  -0.94579
C     0.61250  -7.05791  -0.40719
N    -0.42373  -6.70807  -0.02206
C     1.43242  -8.77004  -1.72760
N     1.08758  -9.72431  -2.28746
C     2.82211  -8.19296   0.18289
C     3.90321  -7.28662   0.75710
C     3.44259  -6.10154   1.60157
C     2.57042  -5.04725   0.91353
C     3.08960  -4.42329  -0.40898
C     4.52028  -3.89560  -0.16010
C     2.11612  -3.26855  -0.74357
C     2.38541  -1.94776  -0.35475
C     1.48544  -0.91746  -0.64053
C     0.29374  -1.18686  -1.31902
C     0.00803  -2.50067  -1.69979
C     0.90941  -3.52823  -1.41216
H     7.88382  -4.58133  -2.06013
H     8.01743  -3.54097  -3.52735
H     7.83857  -5.32804  -3.69584
H     1.94673  -7.39804  -3.78906
H     3.60678  -7.82102  -3.31475
H     5.03329  -6.53204  -4.96540
H     3.50228  -6.50762  -5.87904
H     4.35743  -4.98110  -5.56060
H     2.16677  -8.58702   0.97381
H     3.31872  -9.05434  -0.28427
H     4.52265  -7.93843   1.39510
H     4.56643  -6.95347  -0.05398
H     2.87622  -6.47887   2.47023
H     4.34006  -5.61482   2.01479
H     1.55383  -5.42028   0.75985
H     2.45236  -4.20552   1.61338
H     4.55178  -3.31957   0.77440
H     5.23071  -4.72462  -0.05576
H     4.87367  -3.23402  -0.96240
H     3.30885  -1.70473   0.17017
H     1.72274   0.10432  -0.33401
H    -0.40574  -0.37962  -1.54881
H    -0.91972  -2.73007  -2.22974
H     0.67364  -4.54320  -1.73234
