53
Generated by autodE on: 2022-06-02. E = -1260.783598 Ha. Imaginary frequency = -216.3 cm-1
C     7.41556  -4.08108  -2.59979
O     6.06978  -3.96306  -3.07309
C     5.39105  -5.11559  -3.25834
O     5.90852  -6.20998  -3.07515
C     4.02669  -4.85531  -3.70418
C     3.67703  -3.51829  -4.01394
N     3.40332  -2.41486  -4.27828
C     3.13573  -5.62853  -1.19609
C     2.84628  -6.76915  -1.57427
C     3.31805  -7.11707  -3.72862
N     3.18657  -5.86643  -4.14763
C     1.88591  -5.45546  -4.69543
C     2.39091  -8.09842  -1.06441
C     1.13625  -8.49615  -1.73528
N     0.13345  -8.77427  -2.24544
C     3.42021  -9.12145  -1.35847
N     4.25221  -9.90128  -1.56478
C     2.15071  -8.02941   0.48540
C     3.35181  -7.43813   1.24705
C     3.12673  -6.05667   1.88841
C     2.51894  -4.92695   1.04762
C     3.26328  -4.49196  -0.26490
C     4.74724  -4.21225   0.02594
C     2.52232  -3.26481  -0.81508
C     3.02171  -1.96588  -0.65556
C     2.30221  -0.86162  -1.12627
C     1.07178  -1.03816  -1.76265
C     0.56081  -2.33095  -1.92010
C     1.27958  -3.42994  -1.44786
H     7.44204  -4.59221  -1.62635
H     7.78781  -3.05517  -2.49636
H     8.03297  -4.63640  -3.32078
H     2.57100  -7.83222  -4.07347
H     4.30157  -7.45613  -3.42142
H     2.03402  -4.79648  -5.55928
H     1.33619  -6.34923  -5.00642
H     1.31897  -4.92032  -3.91972
H     1.24493  -7.42306   0.62749
H     1.91634  -9.04862   0.82401
H     3.62499  -8.13279   2.05569
H     4.23120  -7.40214   0.58605
H     2.45209  -6.18556   2.75226
H     4.08840  -5.72359   2.31066
H     1.48206  -5.17536   0.77378
H     2.46212  -4.02826   1.68324
H     4.84817  -3.55372   0.90049
H     5.28024  -5.14830   0.24038
H     5.22732  -3.72780  -0.83156
H     3.98097  -1.79952  -0.16546
H     2.71355   0.14264  -0.99797
H     0.51482  -0.17549  -2.13590
H    -0.39944  -2.48569  -2.41820
H     0.87399  -4.43509  -1.58158
