34
Generated by autodE on: 2022-06-17. E = -915.605198 Ha
C    -0.62090   1.04305   2.10032
C    -0.58798  -0.19377   1.20088
C    -0.16921  -1.41563   2.01719
C    -1.94929  -0.46525   0.45257
C    -3.13498   0.37694   0.83268
O    -3.84217   0.94652   0.02859
C    -1.51977  -0.33539  -1.01951
C    -2.45793  -0.80543  -2.03575
N    -3.19664  -1.19958  -2.83553
N    -0.23116  -0.97063  -1.01204
C     0.38316  -0.01689  -0.06079
C     1.84934  -0.20516   0.19453
C     2.47098  -1.42028  -0.12785
C     3.82589  -1.61821   0.14929
C     4.57480  -0.60646   0.75656
C     3.96055   0.60660   1.08135
C     2.60689   0.80934   0.80217
C    -0.03495   1.32296  -0.69382
O     0.49319   2.40235  -0.71456
O    -1.24693   1.09226  -1.27236
H    -1.25679   0.85235   2.97659
H     0.38965   1.27067   2.46860
H    -1.01081   1.93675   1.59021
H     0.77910  -1.22865   2.54121
H    -0.05179  -2.30509   1.38318
H    -0.94182  -1.62887   2.77173
H    -2.26096  -1.50687   0.63435
H    -3.36442   0.40357   1.92135
H     0.21412  -0.91200  -1.93266
H     1.89198  -2.21785  -0.59388
H     4.29625  -2.56973  -0.10933
H     5.63395  -0.76190   0.97478
H     4.53792   1.40451   1.55402
H     2.14259   1.76306   1.04890
