14
Generated by autodE on: 2022-06-17. E = -270.687346 Ha
C    -1.91473  -1.37621   0.02465
C    -0.95020  -0.22986   0.05457
C    -1.58137   1.11924   0.22756
C     0.38427  -0.45503  -0.07095
C     1.41987   0.56291  -0.06014
O     2.61723   0.31375  -0.17916
H    -1.41094  -2.34411  -0.10361
H    -2.50515  -1.39891   0.95700
H    -2.64137  -1.23830  -0.79476
H    -2.30078   1.29508  -0.59022
H    -2.16908   1.13232   1.16112
H    -0.86893   1.95183   0.25115
H     0.74626  -1.48138  -0.19351
H     1.08978   1.61878   0.06299
