20
Generated by autodE on: 2022-06-17. E = -644.893749 Ha
N    -4.47423  -0.52018   1.78370
C    -3.48863  -0.40106   1.17010
C    -2.30647  -0.25881   0.43269
N    -1.06692  -0.11937   0.89771
C    -0.16681  -0.00820  -0.12250
C     1.26871   0.14195   0.03935
C     2.08902   0.30320  -1.09854
C     3.46880   0.44913  -0.96055
C     4.06169   0.43873   0.30598
C     3.25723   0.27741   1.43959
C     1.87710   0.12884   1.31301
C    -0.93002  -0.08267  -1.33325
O    -0.67079  -0.04015  -2.52198
O    -2.27791  -0.24314  -0.90564
H    -0.84452  -0.09569   1.89430
H     1.63410   0.31316  -2.08836
H     4.08619   0.57287  -1.85338
H     5.14281   0.55407   0.41021
H     3.70832   0.26461   2.43443
H     1.27959  -0.00382   2.21764
