51
Generated by autodE on: 2022-06-24. E = -1275.342430 Ha
C     3.43307  -0.25716  -3.51126
N     2.75497  -0.07070  -2.24684
C     2.04465  -1.02048  -1.63737
O     1.91811  -2.18189  -2.05728
C     1.39354  -0.59017  -0.30150
C     2.15322  -1.27265   0.85944
O     2.46067  -0.63226   1.87082
N     2.40436  -2.57786   0.70963
C     3.07775  -3.35051   1.73527
N     1.43575   0.86231  -0.12033
C     0.13262   1.46181  -0.45605
C     0.29189   2.59517  -1.47798
C    -0.51350   2.01836   0.81781
O    -0.03500   1.91108   1.93098
O    -1.64661   2.66853   0.56886
C    -2.41464   3.11109   1.69826
C    -0.68548   0.24696  -1.05566
C    -0.11095  -0.96913  -0.31556
C    -0.70311  -1.14249   1.09489
C    -2.14628  -0.71179   1.17395
C    -2.94137  -0.92883   2.39051
N    -2.34395  -1.62588   3.38926
O    -4.10281  -0.49134   2.53589
C    -2.74588  -0.05156   0.14212
N    -2.12580   0.31127  -1.00915
C    -2.82791   1.12451  -1.98841
H     4.35318   0.34280  -3.53106
H     2.80041   0.04678  -4.36194
H     3.69292  -1.31662  -3.63492
H     2.69944   0.84656  -1.80374
H     2.17623  -2.99652  -0.19119
H     2.53795  -3.28448   2.69237
H     4.10672  -2.99188   1.90037
H     3.11536  -4.40048   1.42101
H     1.66864   1.04751   0.85705
H    -0.67692   3.01952  -1.76982
H     0.91511   3.40064  -1.06090
H     0.78821   2.20166  -2.37601
H    -2.79480   2.23948   2.25170
H    -1.80450   3.73965   2.36106
H    -3.25017   3.68802   1.28606
H    -0.39428   0.18593  -2.11411
H    -0.27586  -1.87827  -0.90566
H    -0.60166  -2.20355   1.37448
H    -0.11018  -0.58107   1.83363
H    -2.85270  -1.76436   4.25523
H    -1.40251  -1.98948   3.31620
H    -3.79998   0.22078   0.22149
H    -3.87165   0.78987  -2.06533
H    -2.35229   1.00611  -2.97225
H    -2.82398   2.19501  -1.72418
