20
Generated by autodE on: 2022-06-24. E = -457.715318 Ha
C    -3.11150  -0.17772  -0.62976
N    -1.78920   0.29334  -0.25174
C    -1.64428   1.57786   0.28719
C    -0.46422   2.05687   0.71146
C     0.81725   1.26255   0.65333
C     0.56215  -0.11427   0.06172
C     1.65315  -1.08707  -0.10809
N     2.88026  -0.68428   0.30836
O     1.49432  -2.22158  -0.60356
C    -0.68383  -0.49836  -0.33610
H    -3.77656  -0.24924   0.24703
H    -3.02685  -1.17184  -1.08603
H    -3.57530   0.50426  -1.35993
H    -2.56492   2.16229   0.33405
H    -0.43008   3.07141   1.11507
H     1.57873   1.81202   0.06251
H     1.26100   1.18275   1.66715
H     3.65900  -1.32733   0.21719
H     3.04605   0.22151   0.72793
H    -0.83838  -1.49411  -0.75468
