51
Generated by autodE on: 2022-06-24. E = -1275.270723 Ha. Imaginary frequency = -410.8 cm-1
C     4.12141   0.24394  -2.19141
N     3.08097   0.47498  -1.20872
C     2.27255  -0.51481  -0.78888
O     2.48151  -1.70400  -1.09837
C     1.16098  -0.13742   0.13248
C     1.16196  -0.78764   1.49115
O     0.64754  -0.19498   2.45622
N     1.73066  -2.00037   1.57896
C     1.73214  -2.80231   2.78344
N     0.70709   1.15099   0.23107
C     0.04093   1.83549  -0.74326
C     0.53112   1.94591  -2.15487
C    -0.81103   2.88768  -0.17333
O    -1.07626   2.97552   1.02174
O    -1.32442   3.71947  -1.09377
C    -2.23590   4.71744  -0.62013
C    -1.47371   0.07947  -1.10889
C    -0.54771  -0.97503  -1.10428
C    -0.89241  -2.24492  -0.35678
C    -1.64031  -1.89569   0.90884
C    -1.58296  -2.82849   2.03714
N    -1.92647  -2.36033   3.27170
O    -1.25070  -4.01801   1.87179
C    -2.39127  -0.75902   0.93947
N    -2.43881   0.13344  -0.09723
C    -3.49724   1.13255  -0.14115
H     3.69741  -0.09759  -3.15011
H     4.83167  -0.52069  -1.84184
H     4.66425   1.18210  -2.35871
H     2.88197   1.42593  -0.91973
H     2.10647  -2.38555   0.71188
H     1.30304  -3.79421   2.58268
H     1.12383  -2.30480   3.54714
H     2.75441  -2.93281   3.17461
H     0.31325   1.31733   1.16635
H    -0.26852   2.34195  -2.79219
H     0.84701   0.97933  -2.56378
H     1.38896   2.63886  -2.22675
H    -3.12724   4.24766  -0.17828
H    -2.51892   5.30920  -1.49850
H    -1.75239   5.35919   0.13042
H    -1.71447   0.63193  -2.01451
H     0.03621  -1.09834  -2.01625
H    -1.50352  -2.90034  -1.01289
H     0.00834  -2.82803  -0.12607
H    -1.79337  -2.99540   4.05251
H    -1.83949  -1.37018   3.47169
H    -3.02936  -0.50634   1.78962
H    -4.45937   0.68121  -0.43638
H    -3.61853   1.60827   0.84184
H    -3.24144   1.90274  -0.87666
