17
Generated by autodE on: 2022-06-16. E = -397.472466 Ha
C     3.22527  -0.38809   0.10255
N     1.84980  -0.81013   0.23852
C     0.78287  -0.00212  -0.00966
O     0.92863   1.18227  -0.39819
C    -0.51042  -0.61306   0.20597
N    -1.66621   0.05161   0.00347
C    -2.90302  -0.72027   0.25661
N    -1.85095   1.26445  -0.38695
H     3.77796  -1.04400  -0.58955
H     3.75074  -0.39532   1.07236
H     3.24430   0.63362  -0.29442
H     1.66637  -1.75362   0.56279
H    -0.60165  -1.64395   0.54058
H    -2.94960  -1.56458  -0.44321
H    -2.88962  -1.09919   1.28615
H    -3.75029  -0.04610   0.10401
H    -0.90496   1.65378  -0.52266
