36
Generated by autodE on: 2022-10-21. E = -3415.337471 Ha
C     4.25599  -0.13084  -1.83842
N     2.98869  -0.62927  -1.34408
C     2.41397  -0.13727  -0.24089
O     2.91268   0.77041   0.43470
C     1.09042  -0.79914   0.19115
C     1.38108  -1.47564   1.53714
N     0.70450  -1.85307  -0.75686
C    -0.49510  -1.71014  -1.16876
C    -1.13892  -2.62025  -2.16108
C    -1.22380  -0.47650  -0.66226
O    -2.47636  -0.71758  -0.09134
C    -2.56655  -1.80371   0.82491
C    -1.38250   0.54802  -1.84174
C    -2.05315   1.79007  -1.28956
C    -1.10870   2.40723  -0.57074
C     0.12938   1.52750  -0.68129
O    -0.01939   0.96522  -1.99391
C    -0.09376   0.24075   0.19386
Br   -0.66164   0.80046   1.99494
H     4.18969   0.93861  -2.09418
H     4.53298  -0.69270  -2.73859
H     5.05195  -0.24918  -1.08598
H     2.51434  -1.39703  -1.81022
H     0.47766  -1.95886   1.93366
H     2.14876  -2.24773   1.38059
H     1.75491  -0.74689   2.26569
H    -2.20824  -2.75454  -1.94453
H    -1.06805  -2.16913  -3.16576
H    -0.63460  -3.59523  -2.18411
H    -3.58395  -1.77959   1.23830
H    -2.41008  -2.77504   0.32760
H    -1.84805  -1.70580   1.65219
H    -1.78187   0.11454  -2.76441
H    -3.10446   2.04713  -1.41024
H    -1.18904   3.30379   0.04128
H     1.10280   2.00473  -0.54887
