17
Generated by autodE on: 2022-10-21. E = -2995.673360 Ha
C     2.59402  -1.14438  -0.14619
O     1.39564  -1.76355  -0.62118
C     0.25793  -1.06815  -0.59645
C    -0.15257   0.15434  -0.20647
Br    0.69078   1.59494   0.66526
C    -1.68978   0.12011  -0.39646
C    -2.27113  -0.86143   0.64923
C    -1.85718  -2.06777   0.25029
C    -1.04013  -1.79312  -1.03247
O    -1.77509  -0.68842  -1.58510
H     3.39551  -1.88021  -0.28688
H     2.50856  -0.89254   0.92128
H     2.82102  -0.23743  -0.72666
H    -2.18313   1.09114  -0.51443
H    -2.83694  -0.57383   1.53481
H    -1.98478  -3.04381   0.71671
H    -0.90133  -2.61499  -1.74350
