43
Generated by autodE on: 2022-06-21. E = -1141.947024 Ha
C     0.35632  -0.90171  -2.93122
N    -0.74951  -0.48222  -2.08436
C    -1.85596  -1.32427  -2.00386
C    -2.91040  -1.09317  -1.20622
C    -2.98666   0.15038  -0.37253
C    -1.60139   0.75169  -0.01716
C    -1.74422   2.27760   0.08972
N    -1.74726   2.95262  -1.07036
O    -1.88216   2.83024   1.18199
C    -0.40321   0.34048  -0.94811
C     0.61650  -0.31421   0.09125
C     2.06810  -0.35132  -0.30571
C     2.85664  -1.49900  -0.14048
C     4.21303  -1.48022  -0.47749
C     4.80102  -0.31449  -0.97392
C     4.02454   0.83869  -1.12604
C     2.66937   0.82035  -0.79324
C    -0.08584  -1.63121   0.46393
O     0.10537  -2.77036   0.12923
O    -1.13100  -1.26816   1.25383
C    -1.06124   0.20834   1.33690
C    -1.77300   0.56238   2.56576
N    -2.32519   0.71823   3.57199
N     0.33880   0.52397   1.28508
C     1.12855   0.20598   2.47578
H    -0.03471  -1.24289  -3.90018
H     1.02807  -0.05135  -3.11433
H     0.95170  -1.72063  -2.48975
H    -1.82097  -2.19160  -2.66765
H    -3.75585  -1.78229  -1.20945
H    -3.54059  -0.02395   0.56344
H    -3.56470   0.91812  -0.91602
H    -1.70709   2.48559  -1.96974
H    -1.92225   3.95326  -1.05301
H     0.10343   1.24058  -1.31198
H     2.41289  -2.41518   0.24491
H     4.81206  -2.38429  -0.34642
H     5.86136  -0.30165  -1.23656
H     4.47558   1.75874  -1.50460
H     2.08008   1.73101  -0.91135
H     2.17930   0.44868   2.27543
H     1.06366  -0.85438   2.77878
H     0.78595   0.83367   3.30933
