20
Generated by autodE on: 2022-06-21. E = -457.715337 Ha
C    -3.12910   0.27625   0.47007
N    -1.82750  -0.10982  -0.05003
C    -1.72789  -1.20633  -0.91592
C    -0.55026  -1.68213  -1.35039
C     0.77773  -1.08955  -0.94784
C     0.57234   0.06833   0.01519
C     1.71431   0.80861   0.57593
N     2.94466   0.39832   0.17700
O     1.59278   1.76026   1.37396
C    -0.67496   0.46657   0.39346
H    -3.85061   0.39713  -0.35225
H    -3.52627  -0.47741   1.17148
H    -3.03978   1.23363   0.99859
H    -2.68262  -1.64279  -1.21498
H    -0.55422  -2.53659  -2.03105
H     1.42029  -1.87190  -0.49468
H     1.33730  -0.76163  -1.84804
H     3.75871   0.88022   0.54232
H     3.08421  -0.36893  -0.46787
H    -0.79330   1.29900   1.08899
