23
Generated by autodE on: 2022-06-21. E = -684.220665 Ha
C     1.17928   0.58874   1.95352
N     1.15906   0.31465   0.51645
C     2.25608   0.33586  -0.24932
C     3.56458   0.64273   0.14393
N     4.65732   0.89819   0.46613
O     1.94251  -0.00113  -1.50882
C     0.55306  -0.26876  -1.57079
O     0.03964  -0.60817  -2.62268
C     0.07185  -0.03913  -0.24352
C    -1.31255  -0.16599   0.20087
C    -1.88259   0.66819   1.18497
C    -3.21812   0.51208   1.55806
C    -4.01499  -0.46421   0.95267
C    -3.46489  -1.28533  -0.03741
C    -2.12981  -1.14101  -0.41110
H     2.19529   0.42049   2.32828
H     0.48473  -0.09454   2.45422
H     0.88543   1.62902   2.14114
H    -1.29507   1.46268   1.64376
H    -3.64146   1.16921   2.32120
H    -5.06072  -0.58051   1.24610
H    -4.07880  -2.04983  -0.51930
H    -1.70683  -1.78879  -1.17927
