43
Generated by autodE on: 2022-06-21. E = -1141.913147 Ha. Imaginary frequency = -349.2 cm-1
C     0.18028  -0.95259  -3.02027
N    -0.91999  -0.56004  -2.14766
C    -2.11006  -1.29935  -2.15268
C    -3.12815  -1.00904  -1.33116
C    -3.08160   0.12224  -0.34442
C    -1.67185   0.73182  -0.18479
C    -1.74832   2.20002   0.19164
N    -0.84283   3.05829  -0.31693
O    -2.63997   2.58328   0.95643
C    -0.68788   0.35208  -1.17189
C     0.95612  -0.56966   0.55740
C     2.30541  -0.41508   0.02628
C     3.08579  -1.55490  -0.26384
C     4.35848  -1.42222  -0.81673
C     4.88389  -0.15404  -1.09054
C     4.11722   0.98250  -0.81465
C     2.83949   0.85786  -0.26784
C     0.08969  -1.68966   0.35978
O     0.17276  -2.73124  -0.27532
O    -1.08694  -1.40096   1.07614
C    -1.00357  -0.05412   1.41938
C    -1.84005   0.26922   2.55741
N    -2.51669   0.49715   3.47214
N     0.34715   0.24671   1.50821
C     0.89247   1.41906   2.16714
H    -0.21926  -1.29459  -3.98409
H     0.83347  -0.08665  -3.19463
H     0.77488  -1.75989  -2.56858
H    -2.14713  -2.10281  -2.88908
H    -4.04841  -1.59211  -1.40352
H    -3.46636  -0.21646   0.63268
H    -3.78620   0.91414  -0.65498
H    -0.12398   2.78862  -0.97594
H    -0.87233   4.02431  -0.00566
H     0.20702   0.94833  -1.32988
H     2.68290  -2.54572  -0.05333
H     4.94820  -2.31679  -1.03080
H     5.88273  -0.05303  -1.52106
H     4.51172   1.97681  -1.03692
H     2.24364   1.75392  -0.09538
H     1.92788   1.21210   2.46545
H     0.30229   1.61804   3.07168
H     0.87019   2.31119   1.52734
