13
Generated by autodE on: 2022-05-28. E = -406.788330 Ha
F    -1.44991  -1.48410  -1.03452
C    -0.82800  -0.53597  -0.33984
C    -1.13084   0.74998  -0.17418
C     0.07793   1.27316   0.63877
C     1.32223   1.25453  -0.28451
C     1.59982  -0.03906  -0.46772
C     0.52288  -0.78905   0.35521
O     0.36792   0.11663   1.46223
H    -1.95100   1.34210  -0.57394
H    -0.08741   2.17329   1.24064
H     1.79661   2.13656  -0.71375
H     2.36083  -0.51397  -1.08567
H     0.73286  -1.81842   0.66592
