34
Generated by autodE on: 2022-05-28. E = -923.420209 Ha. Imaginary frequency = -324.2 cm-1
C    -1.97825   3.01645   2.00903
C    -2.15000   2.22022   0.74553
O    -3.20295   2.15436   0.11089
C    -1.02270   1.40001   0.35053
N     0.01455   1.47985  -0.27539
C     1.03432   0.84428  -0.80238
C     2.37104   0.91344  -0.23218
C     3.44520   0.32991  -0.93419
C     4.72708   0.32062  -0.38530
C     4.96180   0.89840   0.86790
C     3.90131   1.48594   1.56976
C     2.61684   1.49534   1.02898
C     0.04706  -1.35623   0.03336
C    -0.44742  -1.88040  -1.33372
C    -1.24607  -3.18426  -1.09386
C    -2.34190  -2.74235  -0.47771
F    -3.35744  -3.41835   0.05639
C    -2.22002  -1.21466  -0.34763
O    -1.52944  -0.94818  -1.58112
C    -1.08688  -0.93491   0.67139
H    -1.13531   3.71831   1.90153
H    -1.73782   2.34172   2.84667
H    -2.90539   3.56403   2.22631
H     0.91544   0.51635  -1.83858
H     3.26077  -0.12193  -1.91202
H     5.54997  -0.13770  -0.93903
H     5.96714   0.89403   1.29513
H     4.07940   1.94172   2.54677
H     1.79414   1.95637   1.58016
H     1.01229  -1.60134   0.47181
H     0.27050  -1.89452  -2.16127
H    -0.91363  -4.19990  -1.29818
H    -3.15093  -0.64541  -0.25244
H    -1.25336  -0.81713   1.74050
