18
Generated by autodE on: 2022-06-17. E = -235.968071 Ha
C     1.39817  -1.23909   0.62864
C     0.66443  -0.11480  -0.06215
C     1.59352   0.72191  -0.90854
C    -0.66441   0.11487   0.06221
C    -1.39817   1.23919  -0.62851
C    -1.59353  -0.72204   0.90838
H     1.89262  -1.88901  -0.11562
H     2.20770  -0.83594   1.26335
H     0.76357  -1.87387   1.25846
H     2.09239   0.09254  -1.66738
H     2.40306   1.14426  -0.28643
H     1.10486   1.55268  -1.43142
H    -0.76335   1.87482  -1.25724
H    -2.20688   0.83603  -1.26427
H    -1.89370   1.88827   0.11576
H    -1.10492  -1.55309   1.43087
H    -2.40312  -1.14411   0.28613
H    -2.09235  -0.09295   1.66747
