18
Generated by autodE on: 2022-07-27. E = -493.548904 Ha
C     3.15944  -1.70396  -0.54476
N     1.91396  -1.75111   0.19098
C     1.04085  -0.71242   0.17353
O     1.21111   0.29171  -0.54381
C    -0.06250  -0.82188   1.11081
O    -1.03811   0.05104   1.18032
C    -1.55697   0.95474   0.38281
C    -2.58942   1.84317   0.99332
C    -1.29232   1.00378  -1.00030
N    -1.25813   1.08165  -2.16760
H     2.98075  -1.37235  -1.57810
H     3.60120  -2.70803  -0.56676
H     3.88802  -1.01007  -0.08959
H     1.76690  -2.50058   0.85991
H    -0.03320  -1.48297   1.97760
H    -2.96482   1.38251   1.91877
H    -3.42931   2.00839   0.30154
H    -2.16734   2.83146   1.24960
