36
Generated by autodE on: 2022-06-17. E = -729.524213 Ha. Imaginary frequency = -258.0 cm-1
C     3.90061  -1.01633  -0.57450
N     2.86271  -0.79442   0.41050
C     1.91038   0.15590   0.22143
O     1.97971   0.98274  -0.70382
C     0.84011   0.14768   1.21062
O    -0.09164   1.08099   1.27978
C    -0.86452   1.63053   0.35832
C    -1.96444   2.48786   0.89809
C    -0.55019   1.76037  -1.01388
N    -0.52783   1.94212  -2.16989
C    -1.81813  -0.83235  -0.01895
C    -2.72405  -0.72072   1.18106
C    -2.46702  -0.52391  -1.34267
C    -0.64033  -1.55993   0.05929
C     0.12932  -1.89672  -1.19635
C    -0.37499  -2.48844   1.22552
H     4.46544  -0.09090  -0.76177
H     3.48701  -1.35992  -1.53874
H     4.59322  -1.77905  -0.19736
H     2.69368  -1.51276   1.10773
H     1.02937  -0.29529   2.18884
H    -2.25033   2.13636   1.89906
H    -2.84240   2.44053   0.23629
H    -1.66084   3.54745   0.97272
H    -2.17110  -0.49294   2.10455
H    -3.48795   0.05622   1.03565
H    -3.25959  -1.67312   1.35453
H    -1.75028  -0.35598  -2.15497
H    -3.10098  -1.38145  -1.64055
H    -3.12620   0.35538  -1.28076
H    -0.39230  -2.68488  -1.77038
H     1.12925  -2.28195  -0.95470
H     0.25127  -1.03184  -1.86248
H     0.69777  -2.70315   1.34052
H    -0.75413  -2.10960   2.18281
H    -0.87623  -3.45750   1.03463
