22
Generated by autodE on: 2022-06-03. E = -574.845897 Ha
C     3.59842  -0.57623  -0.26435
O     2.18401  -0.72235  -0.09726
C     1.47452   0.40859   0.09140
O     1.99795   1.51294   0.12387
C     0.05244   0.12498   0.23956
C    -0.98957   0.98533   0.23672
C    -1.07901   2.45665   0.11357
C    -2.23579   0.06469   0.28034
C    -2.31514  -0.63339  -1.09509
C    -1.28643  -1.48674  -1.10120
C    -0.59323  -1.28299   0.26429
O    -1.73586  -1.00767   1.09681
H     3.82389   0.03896  -1.14803
H     3.99450  -1.58956  -0.39971
H     4.04826  -0.10982   0.62461
H    -1.61129   2.88010   0.98284
H    -1.68575   2.71398  -0.77304
H    -0.09211   2.92610   0.02862
H    -3.15349   0.50833   0.68187
H    -3.03507  -0.39779  -1.87789
H    -0.93273  -2.14774  -1.89180
H     0.01827  -2.10227   0.65360
