22
Generated by autodE on: 2022-07-26. E = -645.321140 Ha
C     2.50998   1.37999  -2.35663
N     1.60027   1.44394  -1.23751
N     0.98533   0.36780  -1.01619
C     0.06169   0.06135  -0.05070
C    -0.32363   1.06344   0.93629
O     0.14484   2.19044   1.00951
O    -1.27157   0.63074   1.79003
C    -1.68971   1.55863   2.79480
C    -0.44950  -1.30861  -0.10407
O    -1.25477  -1.82267   0.65277
O     0.09441  -2.00009  -1.13945
C    -0.31333  -3.36241  -1.29732
H     2.55946   0.38376  -2.83077
H     3.51608   1.66962  -2.01351
H     2.20463   2.12657  -3.10786
H     1.16729  -0.44760  -1.63439
H    -2.12454   2.46114   2.33990
H    -2.44854   1.03515   3.38884
H    -0.84486   1.85033   3.43640
H     0.22930  -3.73982  -2.17202
H    -0.05101  -3.95181  -0.40663
H    -1.39770  -3.42513  -1.46948
