44
Generated by autodE on: 2022-06-03. E = -1220.160446 Ha. Imaginary frequency = -323.1 cm-1
C     5.78474   0.36481  -0.26880
O     4.37769   0.10843  -0.33625
C     3.86174  -0.69380   0.61678
O     4.54816  -1.18721   1.49935
C     2.42441  -0.86933   0.44155
C     1.52909  -1.43436   1.28392
C     1.66038  -2.06901   2.61380
C     0.16456  -1.18315   0.60522
O     0.53088  -1.26177  -0.78191
C     1.58032  -0.27949  -0.70856
C     0.79395   0.91721  -0.13545
C    -0.10953   0.32699   0.74203
C    -2.08933   0.58330  -0.50470
C    -2.50020   1.81962   0.19922
O    -2.46535   2.93581  -0.28614
O    -2.92620   1.59266   1.44937
C    -3.37391   2.73606   2.18768
C    -2.77596  -0.70031  -0.27046
O    -3.47937  -0.97598   0.68412
O    -2.49746  -1.59116  -1.24138
C    -3.04984  -2.90466  -1.09610
N    -1.40762   0.69645  -1.68104
N    -0.42397   1.54568  -1.78338
C     0.30385   1.39860  -3.02706
H     6.04339   0.86338   0.67707
H     6.01477   1.02133  -1.11618
H     6.35445  -0.57260  -0.35063
H     1.25657  -3.09583   2.58586
H     2.69948  -2.09653   2.96139
H     1.04368  -1.51695   3.34533
H    -0.63660  -1.88254   0.86739
H     2.08674  -0.15126  -1.66873
H     1.23511   1.90547  -0.02102
H    -0.52019   0.76923   1.64724
H    -2.55547   3.45977   2.31412
H    -3.69548   2.35527   3.16409
H    -4.21548   3.22491   1.67582
H    -2.70921  -3.47173  -1.97000
H    -4.14829  -2.86311  -1.07451
H    -2.68314  -3.37534  -0.17246
H    -1.36956  -0.16960  -2.23453
H    -0.20927   1.95935  -3.82733
H     0.40450   0.34573  -3.35190
H     1.30252   1.83679  -2.90190
