33
Generated by autodE on: 2022-07-28. E = -873.685616 Ha
C    -0.49711   0.17742   3.66878
N    -0.85335   0.09006   2.26629
C    -0.00257  -0.42053   1.36389
O     1.07766  -0.93867   1.66446
C    -0.47203  -0.41217  -0.06532
N     0.40203  -0.18401  -1.03031
C     1.66389   0.36948  -1.00213
C     2.48208   0.12878  -2.11778
N     3.18564  -0.05502  -3.03702
C     2.04496   1.33997   0.02967
O     1.20284   1.85476   0.78658
N     3.35558   1.67318   0.09416
C     3.82104   2.73831   0.95848
C    -1.83125  -0.80263  -0.43930
C    -2.40595  -0.33259  -1.64029
C    -3.68000  -0.74653  -2.02621
C    -4.41020  -1.62397  -1.21848
C    -3.85636  -2.08675  -0.01921
C    -2.58190  -1.68241   0.37146
H     0.36741   0.84594   3.81431
H    -0.23466  -0.81375   4.06793
H    -1.35302   0.57234   4.22915
H    -1.70009   0.54391   1.93888
H     0.08152  -0.45081  -1.96637
H     4.00898   1.25484  -0.55945
H     3.43648   3.72376   0.64496
H     3.50039   2.56718   1.99731
H     4.91720   2.76516   0.92857
H    -1.86580   0.38679  -2.26000
H    -4.11127  -0.36775  -2.95538
H    -5.41118  -1.94159  -1.51873
H    -4.41932  -2.77614   0.61381
H    -2.15459  -2.07024   1.29654
