33
Generated by autodE on: 2022-06-28. E = -873.698750 Ha
C    -3.43180  -3.05229   1.10422
N    -2.69836  -1.88639   0.65266
C    -1.35638  -1.85715   0.65648
O    -0.66049  -2.80827   1.05012
C    -0.70270  -0.60214   0.18155
N     0.60428  -0.64728   0.30934
C     1.64759   0.16126  -0.00516
C     1.51818   1.37339  -0.70153
N     1.49707   2.38682  -1.28608
C     2.95313  -0.40067   0.38752
O     3.00208  -1.50866   0.95491
N     4.05632   0.31957   0.10864
C     5.37961  -0.15334   0.46366
C    -1.43089   0.57821  -0.31421
C    -1.31765   1.80911   0.35796
C    -2.01927   2.92458  -0.09822
C    -2.83928   2.82614  -1.22715
C    -2.96047   1.60511  -1.89784
C    -2.26356   0.48394  -1.44427
H    -4.50270  -2.88028   0.94422
H    -3.25789  -3.24442   2.17532
H    -3.12626  -3.95005   0.54501
H    -3.21127  -1.06871   0.33976
H     0.93980  -1.53266   0.74017
H     3.96280   1.22376  -0.34201
H     6.11972   0.57737   0.11606
H     5.59606  -1.12570  -0.00629
H     5.48710  -0.27311   1.55392
H    -0.68002   1.88582   1.24090
H    -1.92606   3.87571   0.43051
H    -3.38582   3.70218  -1.58378
H    -3.59686   1.52534  -2.78191
H    -2.35026  -0.46698  -1.97364
