26
Generated by autodE on: 2022-06-28. E = -689.460845 Ha
C    -2.78668   1.93554   0.10561
O    -1.38596   1.99386  -0.18306
C    -0.58048   0.93940  -0.05854
C    -0.85493  -0.30200   0.43292
O    -2.07173  -0.64729   0.94757
C    -2.85473  -1.54780   0.15646
C     0.20863  -1.32680   0.50650
O    -0.04190  -2.42478   1.00066
C     1.57734  -1.01552  -0.00585
C     2.60621  -2.09954   0.05833
C     1.86328   0.21835  -0.49048
C     3.22626   0.58045  -0.99408
C     0.80970   1.26420  -0.53777
O     1.03703   2.38584  -0.97026
H    -3.17299   2.93343  -0.13780
H    -2.96421   1.71588   1.16611
H    -3.28629   1.18558  -0.52407
H    -3.79348  -1.70910   0.70280
H    -3.07724  -1.10568  -0.82894
H    -2.34202  -2.51114   0.01927
H     2.18807  -3.01902   0.48408
H     3.00219  -2.31934  -0.94701
H     3.46681  -1.78354   0.67110
H     3.25931   1.62061  -1.33867
H     3.52102  -0.07786  -1.82791
H     3.98260   0.44487  -0.20355
