25
Generated by autodE on: 2022-07-27. E = -589.556129 Ha
C     2.66553  -1.31456   3.55314
N     2.67863  -0.81187   2.19802
C     1.52297  -0.56494   1.51891
O     0.41583  -0.78388   2.06094
C     1.71454  -0.04907   0.17891
N     0.72827   0.27098  -0.68681
C     1.19742   0.80132  -1.99067
C    -0.58813   0.14580  -0.45833
C    -1.65104   0.51079  -1.38106
O    -1.51737   1.01523  -2.51551
N    -2.89638   0.25249  -0.89007
C    -4.08585   0.54998  -1.65536
H     2.14096  -2.28200   3.62271
H     2.16432  -0.61656   4.24500
H     3.70017  -1.45492   3.89016
H     3.56787  -0.61878   1.75180
H     2.72676   0.10888  -0.18356
H     0.82022   1.82000  -2.12556
H     2.29076   0.79620  -1.99644
H     0.80892   0.17483  -2.79950
H    -0.84594  -0.26147   0.51510
H    -2.99162  -0.16104   0.03030
H    -4.96756   0.26748  -1.06662
H    -4.10820  -0.00583  -2.60777
H    -4.15616   1.62351  -1.89797
