39
Generated by autodE on: 2022-06-13. E = -1109.311443 Ha
F     0.96342  -1.50181   2.44320
C     0.99495  -1.75132   1.10999
F     2.22181  -2.25477   0.86216
F     0.12929  -2.75389   0.88324
C     0.72418  -0.50576   0.29717
C    -0.53379  -0.13852  -0.06258
C    -0.76349   1.02727  -0.96327
C    -0.06241   1.16572  -2.17342
C    -0.29859   2.25904  -3.00809
C    -1.23302   3.23437  -2.64382
C    -1.94325   3.09995  -1.44649
C    -1.72008   1.99784  -0.61891
C    -1.77978  -0.81260   0.39968
C    -2.07231  -0.94429   1.76709
C    -3.27148  -1.52923   2.18111
C    -4.19021  -1.99475   1.23604
C    -3.91026  -1.85997  -0.12851
C    -2.72071  -1.26043  -0.54373
C     1.91219   0.35603   0.02521
C     1.94478   1.65523   0.56020
C     3.02025   2.50642   0.30062
C     4.08209   2.07042  -0.49792
C     4.06279   0.77675  -1.02928
C     2.98882  -0.07637  -0.76737
H     0.66518   0.40677  -2.46323
H     0.24890   2.34880  -3.94929
H    -1.41282   4.09281  -3.29525
H    -2.67773   3.85508  -1.15679
H    -2.28051   1.89287   0.31234
H    -1.35993  -0.57771   2.50738
H    -3.48921  -1.61853   3.24804
H    -5.12616  -2.45519   1.56102
H    -4.62559  -2.21827  -0.87255
H    -2.50981  -1.14378  -1.60899
H     1.11230   1.99718   1.17823
H     3.02839   3.51388   0.72330
H     4.92291   2.73642  -0.70562
H     4.88661   0.43062  -1.65798
H     2.97416  -1.07790  -1.19906
