64
Generated by autodE on: 2022-06-13. E = -1698.845063 Ha. Imaginary frequency = -257.7 cm-1
C    -4.01615  -1.63744  -1.83132
N    -2.81148  -1.83370  -1.05244
C    -1.58717  -1.71070  -1.61601
O    -1.45954  -1.55156  -2.83916
C    -0.48552  -1.74013  -0.62504
N     0.83017  -1.83712  -0.92607
C     1.40409  -1.67314  -2.27315
C     1.70707  -1.74465   0.12588
C     1.55887  -2.66782   1.29228
O     0.51621  -3.27560   1.57761
N     2.69489  -2.83766   2.00536
C     2.67981  -3.51166   3.28776
C     1.05210   0.27444   0.81240
C     2.00963   1.28375   0.18927
C     1.63446   2.64074   0.24255
C     2.46243   3.64378  -0.26033
C     3.69923   3.31603  -0.82422
C     4.10075   1.97926  -0.85446
C     3.26935   0.97721  -0.34355
C     1.41043   0.21862   2.29118
F     0.80146  -0.74176   3.00903
F     2.74022   0.02246   2.46222
F     1.13916   1.38543   2.93226
C    -0.34796   0.30659   0.44254
C    -1.36186   0.28637   1.57322
C    -1.89920  -0.86215   2.17267
C    -2.82950  -0.76974   3.21444
C    -3.23850   0.47590   3.69147
C    -2.69501   1.63311   3.12343
C    -1.77152   1.53477   2.08337
C    -0.83343   1.00344  -0.79676
C    -0.01716   1.24967  -1.92362
C    -0.52176   1.82299  -3.08964
C    -1.87202   2.16972  -3.19164
C    -2.70616   1.91490  -2.10158
C    -2.19871   1.34276  -0.93296
H    -4.01988  -0.65061  -2.32221
H    -4.88362  -1.70626  -1.16362
H    -4.11176  -2.40540  -2.61470
H    -2.88597  -1.84097  -0.04064
H    -0.73084  -2.16897   0.33576
H     1.90327  -2.61203  -2.55451
H     2.15026  -0.86911  -2.26337
H     0.61211  -1.45037  -2.98744
H     2.74114  -1.65653  -0.20113
H     3.47711  -2.22313   1.80416
H     3.71115  -3.62573   3.64403
H     2.22581  -4.50832   3.19604
H     2.10492  -2.94037   4.03710
H     0.67116   2.91099   0.67573
H     2.13747   4.68587  -0.21310
H     4.34777   4.09721  -1.22769
H     5.07085   1.70632  -1.27650
H     3.62309  -0.05017  -0.37063
H    -1.56674  -1.85488   1.87581
H    -3.22656  -1.68587   3.65821
H    -3.96469   0.54679   4.50469
H    -2.98987   2.61844   3.49264
H    -1.36028   2.44701   1.64725
H     1.03194   0.97745  -1.90848
H     0.15403   1.99046  -3.93218
H    -2.26700   2.61860  -4.10583
H    -3.77039   2.15824  -2.15424
H    -2.89190   1.14104  -0.11968
