18
Generated by autodE on: 2022-05-28. E = -2938.734760 Ha
N     1.71216   2.81302  -0.37016
C     0.90652   2.04155  -0.03131
C    -0.08521   1.13226   0.40068
C    -0.08281  -0.21757   0.28121
Br    1.25512  -1.28209  -0.48912
C    -1.43835  -0.73892   0.69919
C    -2.41813  -0.29118  -0.43784
C    -2.45028   1.25601  -0.28733
C    -1.48116   1.51064   0.90860
C    -1.78288   0.28826   1.79997
H    -1.47676  -1.80369   0.95365
H    -3.40653  -0.73679  -0.25622
H    -2.07312  -0.62488  -1.42640
H    -3.45794   1.61294  -0.02968
H    -2.12353   1.78460  -1.19338
H    -1.54925   2.50584   1.36228
H    -2.83566   0.23572   2.11381
H    -1.12301   0.21772   2.67622
