12
Generated by autodE on: 2022-05-28. E = -306.527998 Ha
C    -1.83346   0.95661   0.81444
O    -1.57713  -0.02042   0.03207
C    -0.49167  -0.61982  -0.47515
C     0.87632  -0.28717  -0.25400
C     1.25593   0.86761   0.64481
O     1.76245  -0.96568  -0.81632
H    -2.89657   1.13296   0.98653
H    -1.04881   1.56066   1.26958
H    -0.76326  -1.45121  -1.12422
H     0.88026   0.71609   1.67078
H     2.35086   0.94735   0.67174
H     0.83424   1.81709   0.27426
