12
Generated by autodE on: 2022-07-26. E = -306.535388 Ha
C    -1.25110  -2.24700  -0.08176
O    -0.61747  -1.17050   0.17992
C    -0.20804  -0.20707  -0.65429
C     0.48198   0.89787  -0.09543
C     0.70990   0.91884   1.40557
O     0.88993   1.83224  -0.81850
H    -1.53236  -2.47889  -1.11439
H    -1.47600  -2.88228   0.77521
H    -0.42987  -0.32512  -1.71750
H    -0.24771   0.92915   1.95044
H     1.28163   1.82046   1.66285
H     1.26416   0.02731   1.73877
