30
Generated by autodE on: 2022-05-28. E = -3245.281980 Ha. Imaginary frequency = -106.5 cm-1
C     3.33706   0.83737   2.04852
C     3.14604   0.88929   0.54878
O     3.53678   1.87204  -0.11025
C     2.46349  -0.17666  -0.10682
O     2.01164  -1.19777   0.61814
C     1.20891  -2.11423   0.21114
C    -0.89187  -0.39800   0.05037
Br   -1.65111  -1.28614  -1.44278
C    -1.48823  -0.50771   1.44160
C    -2.59067   0.60147   1.49541
C    -1.76566   1.92015   1.45105
C    -0.29151   1.40956   1.37470
C    -0.37428   0.16012   2.27215
C    -0.17474   0.76796  -0.01110
C     0.20401   1.48208  -1.17308
N     0.51220   2.10407  -2.10967
H     2.53349   1.41758   2.53193
H     4.29301   1.31984   2.29809
H     3.31442  -0.18222   2.45408
H     2.33291  -0.22337  -1.18938
H     1.02171  -2.23052  -0.85834
H     0.91879  -2.85208   0.95885
H    -1.81858  -1.51012   1.73537
H    -3.15316   0.50766   2.43545
H    -3.30401   0.50808   0.66451
H    -1.90325   2.51168   2.36794
H    -2.01887   2.55915   0.59345
H     0.47753   2.15561   1.60329
H    -0.70545   0.40346   3.29193
H     0.55538  -0.41634   2.31689
