39
Generated by autodE on: 2022-06-18. E = -902.006059 Ha
C    -3.50145   0.47222   1.86493
C    -3.03166   0.86168   0.49681
O    -3.64415   1.61425  -0.23444
C    -1.73625   0.21734   0.01854
O    -1.42722   0.72661  -1.33457
C    -0.09863   0.54090  -1.49750
O     0.47189   0.81794  -2.52386
C     0.39242  -0.11019  -0.18494
C     1.85838  -0.04131   0.13295
C     2.28986   0.03431   1.46658
C     3.65159   0.01368   1.77632
C     4.60363  -0.09572   0.75857
C     4.18141  -0.18931  -0.57043
C     2.81941  -0.16521  -0.88271
C    -0.19882  -1.57450  -0.29787
C     0.39556  -2.56627   0.69084
C    -1.71766  -1.32193  -0.07951
C    -2.63679  -1.90546  -1.14043
N    -0.54545   0.50898   0.78714
C    -0.33140   1.93371   1.05735
H    -4.29933   1.15141   2.19084
H    -2.67254   0.46550   2.58675
H    -3.89930  -0.55585   1.81830
H     1.55666   0.10319   2.27016
H     3.96836   0.07874   2.81991
H     5.66890  -0.11290   1.00054
H     4.91605  -0.28402  -1.37368
H     2.50138  -0.24199  -1.92132
H    -0.01706  -1.93848  -1.32038
H     1.45675  -2.76241   0.47964
H    -0.14721  -3.52213   0.61878
H     0.30916  -2.20534   1.72626
H    -2.00427  -1.70658   0.90900
H    -2.38901  -1.52021  -2.14060
H    -3.69159  -1.66667  -0.93030
H    -2.53695  -3.00137  -1.16216
H    -0.34977   2.56481   0.15015
H     0.63661   2.07353   1.55213
H    -1.11087   2.29289   1.74413
