12
Generated by autodE on: 2022-06-18. E = -157.300303 Ha
C     1.95927   0.09836  -0.09631
C     0.51978  -0.22831  -0.35542
C    -0.51978   0.22829   0.35543
C    -1.95927  -0.09835   0.09630
H     2.07550   0.77654   0.76374
H     2.54692  -0.81510   0.10470
H     2.42613   0.57599  -0.97608
H     0.31983  -0.90052  -1.20167
H    -0.31983   0.90048   1.20170
H    -2.07547  -0.77686  -0.76348
H    -2.42629  -0.57555   0.97621
H    -2.54680   0.81510  -0.10517
