27
Generated by autodE on: 2022-06-18. E = -744.671910 Ha
C     4.41086  -0.45402  -0.53114
C     3.35368   0.37380   0.14983
O     3.62258   1.34275   0.86275
C     1.98006  -0.03618  -0.09085
O     1.69576  -1.06508  -0.91009
C     0.30101  -1.24571  -0.97013
O    -0.18510  -2.13439  -1.65158
C    -0.23614  -0.22047  -0.13047
C    -1.65317   0.04535   0.09417
C    -2.17289   1.35135   0.21342
C    -3.54053   1.55434   0.40064
C    -4.41730   0.46657   0.45899
C    -3.91530  -0.83214   0.32284
C    -2.54921  -1.04398   0.14258
N     0.83258   0.46935   0.38631
C     0.75326   1.54060   1.38342
H     5.39848  -0.04343  -0.28664
H     4.26216  -0.44708  -1.62267
H     4.34918  -1.50363  -0.20190
H    -1.51313   2.21516   0.13122
H    -3.92463   2.57318   0.48931
H    -5.48763   0.63047   0.60320
H    -4.59235  -1.68859   0.36348
H    -2.16430  -2.05935   0.04317
H     1.61985   1.47050   2.04472
H     0.75693   2.51847   0.88442
H    -0.17311   1.41607   1.95249
