39
Generated by autodE on: 2022-06-18. E = -901.948881 Ha. Imaginary frequency = -446.0 cm-1
C    -3.71561   1.84293  -0.75589
C    -2.88110   1.28619   0.35897
O    -3.18327   1.39326   1.53905
C    -1.64500   0.53886  -0.02570
O    -1.41512   0.43792  -1.38650
C    -0.08966   0.06841  -1.55581
O     0.33052  -0.26223  -2.65470
C     0.52968   0.23280  -0.25785
C     1.96699   0.12732  -0.00067
C     2.49700  -0.12920   1.28284
C     3.87418  -0.24343   1.47593
C     4.75560  -0.11510   0.39914
C     4.24470   0.12588  -0.88029
C     2.87033   0.24417  -1.08047
C    -0.71400  -1.97590   0.04887
C     0.25364  -2.50998   1.05759
C    -1.93648  -1.36930   0.40196
C    -3.18205  -1.70991  -0.39454
N    -0.41777   0.81629   0.55498
C    -0.25310   1.18001   1.95147
H    -3.13516   2.60574  -1.30070
H    -3.96730   1.05536  -1.48211
H    -4.62987   2.28734  -0.34278
H     1.83972  -0.26192   2.13813
H     4.25872  -0.44273   2.47883
H     5.83297  -0.20656   0.55508
H     4.92236   0.22717  -1.73125
H     2.48406   0.42910  -2.08148
H    -0.64121  -2.40107  -0.95856
H     1.29457  -2.50737   0.70070
H     0.00318  -3.56387   1.28890
H     0.20743  -1.95137   2.00395
H    -2.10946  -1.25340   1.48072
H    -3.49440  -2.74588  -0.18397
H    -4.03143  -1.05769  -0.14071
H    -2.99615  -1.63207  -1.47637
H    -1.04593   1.87728   2.23565
H     0.71737   1.67140   2.08001
H    -0.30824   0.29560   2.60504
