24
Generated by autodE on: 2022-06-03. E = -3054.571116 Ha
C     3.82624  -1.68029   0.52787
N     2.42988  -1.67503   0.14531
C     1.76011  -0.51531  -0.06221
O     2.31819   0.58405   0.04925
C     0.33470  -0.66698  -0.43097
C    -0.66101   0.24159  -0.32573
Br   -0.60448   2.00365   0.33510
C    -1.98369  -0.43391  -0.62474
C    -2.25342  -1.38034   0.59114
C    -1.13548  -2.45245   0.45236
C    -0.35945  -1.97744  -0.81695
C    -1.51735  -1.44974  -1.68681
H     4.17173  -2.71861   0.60299
H     3.98327  -1.18443   1.50015
H     4.44399  -1.15460  -0.21753
H     1.93549  -2.55744   0.08203
H    -2.81039   0.23952  -0.87833
H    -2.21548  -0.83415   1.54429
H    -3.25484  -1.82498   0.49619
H    -0.47728  -2.50692   1.33077
H    -1.55847  -3.45370   0.28317
H     0.29347  -2.73518  -1.26801
H    -2.27490  -2.21563  -1.91161
H    -1.17590  -0.97316  -2.61701
