20
Generated by autodE on: 2022-07-27. E = -552.779938 Ha
C     3.12240   1.30804   0.31507
O     1.78511   1.31826  -0.18921
C     0.95942   0.34255   0.27170
O     1.34232  -0.54056   1.04027
C    -0.36760   0.49022  -0.23190
C    -0.86922   1.65541  -0.82110
N    -1.28390   2.62182  -1.33863
O    -1.36603  -0.38739   0.23367
C    -1.29715  -1.66629   0.15726
C    -0.23480  -2.35559  -0.58258
C    -2.38374  -2.39472   0.83592
H     3.63545   0.37025   0.05395
H     3.63134   2.15547  -0.16026
H     3.13393   1.43225   1.40865
H     0.05803  -1.75202  -1.45894
H    -0.56177  -3.36354  -0.86563
H     0.66314  -2.42632   0.05630
H    -2.87716  -3.06416   0.11192
H    -3.10570  -1.70874   1.29444
H    -1.93680  -3.04782   1.60626
