20
Generated by autodE on: 2022-06-03. E = -552.779220 Ha
C     2.99845  -1.75383  -0.27359
O     1.65240  -1.28626  -0.15584
C     1.48978   0.05544  -0.10599
O     2.43381   0.84133  -0.16246
C     0.11782   0.46499   0.01173
C    -0.20317   1.82445   0.11991
N    -0.39659   2.97616   0.21485
O    -0.80202  -0.56066   0.08732
C    -2.07627  -0.59293   0.10221
C    -2.90893   0.62324   0.01450
C    -2.66943  -1.94230   0.20759
H     3.60605  -1.42753   0.58381
H     2.93773  -2.84889  -0.29224
H     3.46272  -1.38908  -1.20219
H    -2.72714   1.27573   0.88465
H    -3.97043   0.35249  -0.01973
H    -2.64066   1.19826  -0.88754
H    -3.31112  -1.98462   1.10504
H    -1.89533  -2.71766   0.25596
H    -3.33385  -2.11407  -0.65697
