44
Generated by autodE on: 2022-06-03. E = -3607.340988 Ha. Imaginary frequency = -327.2 cm-1
C     2.90386   2.01586  -1.95853
N     1.52544   1.67161  -1.67893
C     1.16916   0.56460  -0.99044
O     1.99424  -0.28292  -0.62113
C    -0.28644   0.43567  -0.70463
C    -1.33256   1.48923  -1.05071
C    -1.74492   1.18151  -2.53120
C    -2.54672  -0.14215  -2.40553
C    -2.46596  -0.45101  -0.88084
C    -2.57674   0.96930  -0.30322
C    -0.99926  -0.76304  -0.57901
Br   -0.36744  -2.44348  -1.27651
C    -0.83452  -1.13276   1.74967
C     0.38139  -1.99262   1.76112
C    -2.14852  -1.75476   2.07464
O    -0.78069   0.14265   2.09584
C     0.13160   1.08909   1.73611
C    -0.41671   2.39431   1.71800
N    -0.86654   3.47113   1.67011
C     1.56537   0.97472   2.02320
O     2.11430   0.09627   2.66351
O     2.22408   2.02407   1.49845
C     3.64540   2.04075   1.67389
H     3.51833   1.10830  -1.92313
H     3.30040   2.73560  -1.22326
H     2.98286   2.46278  -2.95964
H     0.81186   2.35422  -1.90762
H    -1.04320   2.52959  -0.86711
H    -0.87230   1.09524  -3.19268
H    -2.37131   2.00413  -2.90624
H    -2.13300  -0.95792  -3.01294
H    -3.59906  -0.00501  -2.69350
H    -3.17950  -1.20358  -0.52697
H    -3.49441   1.48196  -0.62522
H    -2.50458   1.01572   0.78746
H     1.17028  -1.61618   1.10234
H     0.11092  -3.01521   1.47887
H     0.76284  -2.00292   2.79490
H    -2.34535  -2.59454   1.39386
H    -2.96577  -1.02504   2.02335
H    -2.10465  -2.17133   3.09741
H     4.09993   1.18722   1.15045
H     3.99378   2.98225   1.23448
H     3.90721   2.00083   2.74102
