54
Generated by autodE on: 2022-06-02. E = -1252.128569 Ha
C     2.06185  -1.89222   3.38257
N     1.71509  -1.57340   2.01158
C     1.21893  -0.36965   1.67607
O     1.15170   0.54681   2.50247
C     0.74285  -0.20884   0.18915
C     1.92212  -0.50510  -0.73960
C     3.19774  -0.02480  -0.40347
C     4.27771  -0.19226  -1.27183
C     4.10077  -0.84962  -2.49432
C     2.83440  -1.32896  -2.83804
C     1.75276  -1.15437  -1.96841
C     0.22297   1.24215  -0.00668
C     0.49788   1.94963  -1.35292
C     0.10905   3.43232  -1.17190
C    -1.44581   3.38235  -1.10048
C    -1.76034   1.87890  -1.26352
C    -0.65280   1.43568  -2.23954
C    -1.32572   1.16239   0.02467
F    -1.84215   1.83069   1.15006
C    -1.69245  -0.35652   0.15428
C    -2.79977  -0.82325  -0.80312
C    -2.16838  -0.58873   1.61101
O    -1.45145  -0.96581   2.51394
O    -3.47089  -0.35008   1.77290
C    -3.99370  -0.49293   3.10155
N    -0.43278  -1.03299  -0.11919
C    -0.39943  -2.47506   0.01915
H     2.43183  -2.92407   3.42586
H     1.18488  -1.80011   4.04418
H     2.84564  -1.21825   3.76293
H     1.76769  -2.30602   1.31476
H     3.34716   0.50313   0.54153
H     5.26152   0.19281  -0.99288
H     4.94535  -0.98549  -3.17400
H     2.68228  -1.84126  -3.79127
H     0.76531  -1.51787  -2.25123
H     0.56941   1.84794   0.83565
H     1.51344   1.80348  -1.73645
H     0.56321   3.86624  -0.26879
H     0.44916   4.02446  -2.03449
H    -1.84813   3.78634  -0.16281
H    -1.90487   3.94089  -1.92886
H    -2.79580   1.67360  -1.55626
H    -0.61946   0.35393  -2.41533
H    -0.71879   1.95515  -3.20750
H    -3.69126  -0.19387  -0.69912
H    -2.44902  -0.77772  -1.84126
H    -3.09697  -1.85767  -0.58189
H    -3.49501   0.20992   3.78476
H    -5.06282  -0.26127   3.03284
H    -3.84909  -1.52043   3.46481
H    -1.16881  -2.93051  -0.62177
H    -0.56290  -2.83404   1.05143
H     0.56571  -2.86534  -0.33102
