37
Generated by autodE on: 2022-06-02. E = -879.905123 Ha
C    -0.77673   1.91051   3.05227
N    -0.82010   0.99071   1.93641
C    -0.22909   1.23313   0.73568
O     0.42259   2.28015   0.49898
C    -0.47175   0.19771  -0.30993
C    -1.66950  -0.65820  -0.27383
C    -1.55924  -2.04491  -0.51627
C    -2.68284  -2.86963  -0.47820
C    -3.94189  -2.33337  -0.18746
C    -4.06657  -0.96223   0.06214
C    -2.94641  -0.13245   0.01791
N     0.39985   0.10980  -1.32731
C    -0.06901  -0.29587  -2.67160
C     1.71419   0.41986  -1.19690
C     2.52019   0.81640  -2.40139
C     2.32895   0.16754   0.08283
O     1.76775  -0.27848   1.10420
O     3.67412   0.40574   0.06751
C     4.38271   0.11447   1.27032
H    -0.32826   2.85360   2.71985
H    -0.17186   1.50627   3.88074
H    -1.79090   2.11127   3.43163
H    -1.30377   0.10824   2.06330
H    -0.57705  -2.47485  -0.72296
H    -2.57324  -3.94049  -0.66574
H    -4.82115  -2.98071  -0.15365
H    -5.04680  -0.53281   0.28238
H    -3.06025   0.93871   0.19326
H     0.46195  -1.19570  -3.00660
H    -1.14455  -0.47623  -2.65190
H     0.13323   0.52215  -3.37366
H     1.98803   1.56120  -3.01356
H     3.46626   1.26561  -2.08349
H     2.76311  -0.03538  -3.06211
H     3.97601   0.68723   2.11764
H     5.42451   0.40608   1.08786
H     4.33329  -0.95876   1.51025
