17
Generated by autodE on: 2022-06-02. E = -372.136029 Ha
F     1.66024   1.48037  -0.66872
C     0.89059   0.53148  -0.11422
C     1.10530  -0.78891  -0.10360
C    -0.17047  -1.38791   0.48164
C    -1.28614  -1.21511  -0.60129
C    -1.49440   0.32794  -0.64080
C    -0.48048   0.84575   0.43358
C    -0.58233  -0.28274   1.48210
H     1.93167  -1.33665  -0.55690
H    -0.07628  -2.40747   0.87725
H    -2.20574  -1.73339  -0.28936
H    -0.97816  -1.63089  -1.57133
H    -1.29616   0.76685  -1.62915
H    -2.51910   0.60260  -0.34946
H    -0.63409   1.88103   0.76287
H     0.13126  -0.16487   2.31065
H    -1.60110  -0.41154   1.87964
