54
Generated by autodE on: 2022-06-02. E = -1252.022662 Ha. Imaginary frequency = -230.7 cm-1
C     1.56992  -1.91264   3.76347
N     1.29469  -1.80824   2.34445
C     1.30425  -0.60443   1.72588
O     1.81621   0.39349   2.24224
C     0.88460  -0.68109   0.26658
C     2.05004  -0.71432  -0.64835
C     3.37023  -0.72304  -0.13770
C     4.48016  -0.69209  -0.98128
C     4.31912  -0.65579  -2.36891
C     3.02493  -0.64146  -2.89745
C     1.91430  -0.66314  -2.05625
C     0.07685   1.60644   0.00365
C     0.26081   1.98189  -1.45972
C    -0.15238   3.48764  -1.56417
C    -1.69273   3.45302  -1.33372
C    -1.97411   1.92972  -1.12561
C    -0.96885   1.31523  -2.11418
C    -1.28740   1.58809   0.17190
F    -1.90318   1.94471   1.32919
C    -1.56469  -1.00252   0.38614
C    -2.73542  -1.43582  -0.45568
C    -1.82893  -0.60390   1.75497
O    -1.01373  -0.34776   2.63573
O    -3.16219  -0.51012   2.01088
C    -3.52071  -0.01807   3.30058
N    -0.29311  -1.31782  -0.07128
C    -0.26261  -2.37726  -1.10891
H     1.57919  -2.97175   4.05082
H     0.80804  -1.38628   4.36325
H     2.55103  -1.47566   3.99809
H     0.72642  -2.53577   1.92330
H     3.54429  -0.74719   0.93662
H     5.48192  -0.70201  -0.54506
H     5.18915  -0.63421  -3.02903
H     2.87308  -0.60125  -3.97870
H     0.92843  -0.62153  -2.50929
H     0.78255   1.86362   0.79107
H     1.24054   1.76082  -1.89631
H     0.37783   4.10544  -0.82498
H     0.09381   3.87615  -2.56442
H    -2.01386   4.04444  -0.46409
H    -2.24166   3.82078  -2.21358
H    -3.02665   1.62950  -1.20543
H    -0.94940   0.22144  -2.08504
H    -1.13352   1.64853  -3.14965
H    -3.61099  -0.83782  -0.18271
H    -2.54695  -1.27976  -1.52545
H    -3.00815  -2.49731  -0.31357
H    -3.11182   0.98978   3.46388
H    -4.61724   0.01624   3.31791
H    -3.15655  -0.68576   4.09616
H    -0.61929  -2.03566  -2.08773
H    -0.90397  -3.19992  -0.77198
H     0.75753  -2.75528  -1.20632
