21
Generated by autodE on: 2022-06-06. E = -777.428251 Ha
C     4.81943  -0.15782  -0.09683
O     3.45064   0.08541   0.27952
C     2.52127  -0.37830  -0.53957
O     2.70523  -0.98864  -1.57248
C     1.16257  -0.06526  -0.05642
N     0.06035  -0.40388  -0.68312
C    -1.04131   0.03547   0.01701
C    -2.38295  -0.21484  -0.46364
O    -2.62865  -0.81633  -1.49918
O    -3.31751   0.28626   0.35505
C    -4.68306   0.08662  -0.03421
C    -0.56513   0.70403   1.17842
O    -1.04393   1.27412   2.13043
O     0.88242   0.59467   1.05596
H     5.42970   0.29333   0.69273
H     5.03271   0.31351  -1.06656
H     5.00666  -1.23896  -0.15976
H     0.02909  -0.91841  -1.56718
H    -5.29000   0.55775   0.74750
H    -4.91411  -0.98671  -0.09836
H    -4.88187   0.56141  -1.00612
