25
Generated by autodE on: 2022-10-21. E = -610.379096 Ha
C    -1.64503   2.37843   0.23470
C    -0.42057   1.49582   0.16494
O     0.67297   1.95766   0.53979
C    -0.54924   0.14561  -0.35031
C    -1.77815  -0.52547  -0.69524
C    -1.72397  -1.99324  -1.09006
O    -2.89210   0.02413  -0.64387
N     0.68789  -0.50950  -0.59741
C     1.04836  -0.86491  -1.97937
C     1.61234  -0.56878   0.33147
C     3.03525  -0.90707   0.04782
C     1.21901  -0.39127   1.69759
N     0.98089  -0.32973   2.83367
H    -1.32629   3.38065   0.55127
H    -2.36189   1.97111   0.96379
H    -2.17140   2.42654  -0.72783
H    -0.84066  -2.52894  -0.71838
H    -2.63283  -2.47915  -0.70784
H    -1.74417  -2.07922  -2.18906
H     1.48087  -1.87257  -2.01598
H     0.15335  -0.80823  -2.60275
H     1.78360  -0.13603  -2.35254
H     3.10785  -1.94822  -0.30926
H     3.64382  -0.80056   0.95274
H     3.43386  -0.25371  -0.74382
