18
Generated by autodE on: 2022-10-21. E = -423.102464 Ha
C     4.21292  -0.48366   0.04714
O     3.24593  -0.28904  -1.01428
C     2.00793  -0.17510  -0.65004
C     0.83345  -0.06416  -0.35155
C    -0.54857   0.06440  -0.00395
C    -0.95262   0.08250   1.34864
C    -2.30145   0.20646   1.68234
C    -3.27232   0.31558   0.68075
C    -2.88248   0.29926  -0.66287
C    -1.53622   0.17488  -1.00672
H     4.19390   0.37767   0.73092
H     3.98384  -1.41000   0.59416
H     5.18971  -0.56085  -0.44391
H    -0.19756  -0.00198   2.13285
H    -2.59682   0.21845   2.73430
H    -4.32756   0.41276   0.94599
H    -3.63392   0.38386  -1.45171
H    -1.23571   0.16162  -2.05629
