43
Generated by autodE on: 2022-10-21. E = -1033.461563 Ha. Imaginary frequency = -287.4 cm-1
C     0.46326   2.83805   2.12923
O    -0.49739   2.13589   1.32294
C    -0.01741   1.05782   0.71561
C     0.96464   0.30251   0.53275
C     2.20198  -0.40744   0.50760
C     3.25148  -0.01469  -0.35522
C     4.44564  -0.73461  -0.39173
C     4.62697  -1.85347   0.42944
C     3.59715  -2.25022   1.29075
C     2.39640  -1.54284   1.32875
C    -0.22064  -1.13292  -1.14296
C     0.43270  -2.46899  -1.30905
C     0.28863  -0.11445  -2.00331
N     0.80954   0.59642  -2.76664
N    -1.36970  -1.00034  -0.45645
C    -1.93524  -2.21732   0.14773
C    -1.86758   0.26607  -0.14360
C    -2.68584   0.42774   1.09954
C    -2.27173  -0.27430   2.37571
O    -3.63210   1.20696   1.12653
C    -2.20959   1.14764  -1.30504
C    -2.54589   2.59922  -1.07936
O    -2.21995   0.69174  -2.44507
H    -0.06004   3.70392   2.55361
H     1.30880   3.17062   1.50724
H     0.83024   2.18253   2.93428
H     3.11281   0.85612  -0.99763
H     5.24509  -0.41637  -1.06551
H     5.56505  -2.41234   0.39915
H     3.72904  -3.12267   1.93546
H     1.58892  -1.86111   1.99141
H     0.53713  -2.98133  -0.34290
H     1.42954  -2.33865  -1.74677
H    -0.15847  -3.11221  -1.98405
H    -1.31196  -2.58696   0.97282
H    -2.94593  -2.00473   0.50287
H    -2.00654  -2.99500  -0.62310
H    -1.30211  -0.77971   2.31740
H    -3.04766  -0.99974   2.66374
H    -2.23139   0.49375   3.16212
H    -2.14664   3.16867  -1.93173
H    -2.15443   2.99120  -0.13589
H    -3.64091   2.71381  -1.07814
