43
Generated by autodE on: 2022-06-18. E = -921.435754 Ha
C     4.84078   0.31234   1.38790
O     3.70990   0.20819   0.50413
C     2.51860   0.03857   1.06539
O     2.32504  -0.01785   2.25968
C     1.39252  -0.12835   0.02617
C     1.85402   0.33774  -1.30733
N     2.12589   0.73491  -2.36393
C     0.99038  -1.64670   0.01794
C     1.83359  -2.53078  -0.88788
C    -0.53320  -1.61088  -0.22364
C    -0.92076  -1.62686  -1.70166
C    -0.97061  -0.33246   0.56971
C    -1.14833  -0.65764   2.06609
C    -2.24559   0.28267  -0.01539
C    -2.17647   1.24207  -1.03824
C    -3.33531   1.76068  -1.62090
C    -4.59417   1.32545  -1.19557
C    -4.67768   0.36744  -0.18174
C    -3.51529  -0.14525   0.40322
N     0.17537   0.56805   0.35797
C     0.24728   1.85210   1.01805
H     4.93489  -0.60209   1.99024
H     4.72355   1.18190   2.04952
H     5.71623   0.43768   0.74138
H     1.14280  -1.97733   1.05354
H     1.76610  -2.23690  -1.94488
H     2.89305  -2.48598  -0.59132
H     1.50320  -3.57714  -0.80305
H    -0.98625  -2.49034   0.25748
H    -0.51187  -0.76853  -2.25463
H    -2.01288  -1.61246  -1.82128
H    -0.54817  -2.54443  -2.18022
H    -1.46993   0.23512   2.62305
H    -0.19793  -1.00025   2.49648
H    -1.89762  -1.44488   2.22475
H    -1.19785   1.57803  -1.38279
H    -3.25306   2.50846  -2.41381
H    -5.50184   1.72982  -1.65005
H    -5.65387   0.01445   0.16014
H    -3.60959  -0.89648   1.18796
H     0.50279   1.79306   2.09185
H     1.00761   2.47893   0.52392
H    -0.71656   2.37273   0.92507
