12
Generated by autodE on: 2022-06-18. E = -157.299004 Ha
C    -1.53932   0.66424   0.11532
C    -0.71451  -0.54168  -0.22250
C     0.62190  -0.66038  -0.17405
C     1.62000   0.38321   0.23011
H    -2.14701   0.97871  -0.75160
H    -0.93341   1.52454   0.43380
H    -2.25575   0.43515   0.92396
H    -1.28566  -1.42155  -0.54509
H     1.05080  -1.62925  -0.46013
H     1.15457   1.34079   0.50409
H     2.22049   0.03864   1.09060
H     2.33826   0.57543  -0.58643
