31
Generated by autodE on: 2022-07-27. E = -764.094847 Ha
C     4.05809  -1.18202   1.98281
O     3.49691  -0.32696   0.98661
C     2.14104  -0.34676   0.86576
O     1.43964  -1.09628   1.54664
C     1.67246   0.59131  -0.10978
C     2.53231   1.51888  -0.71742
N     3.24503   2.29498  -1.23101
N     0.27535   0.70188  -0.34487
C    -0.29927   2.04954  -0.18879
C    -0.45884  -0.35609  -0.62504
C     0.16764  -1.62935  -1.06054
C    -1.92678  -0.31052  -0.47263
C    -2.76725  -0.74374  -1.51351
C    -4.15229  -0.72382  -1.34844
C    -4.71046  -0.30322  -0.13679
C    -3.87844   0.10463   0.91099
C    -2.49392   0.10879   0.74519
H     3.81963  -2.23697   1.77925
H     3.68961  -0.91851   2.98607
H     5.14373  -1.03113   1.93559
H    -0.36147   2.31046   0.87576
H     0.37420   2.75816  -0.68826
H    -1.28670   2.10312  -0.65594
H     0.31803  -2.28416  -0.18628
H    -0.50339  -2.15246  -1.75481
H     1.15077  -1.45487  -1.52056
H    -2.33646  -1.07352  -2.46073
H    -4.79873  -1.04247  -2.16900
H    -5.79504  -0.29879  -0.00677
H    -4.30931   0.41922   1.86398
H    -1.84543   0.41400   1.56796
