31
Generated by autodE on: 2022-06-18. E = -764.093209 Ha
C     1.86812   1.88389   1.49028
O     1.46233   0.57643   1.09061
C     1.69344   0.23496  -0.20367
O     2.38286   0.93938  -0.94619
C     1.08927  -1.00059  -0.59004
C     1.37075  -1.53483  -1.85300
N     1.59829  -1.99292  -2.90874
N     0.17821  -1.70691   0.25557
C     0.52780  -3.10183   0.57028
C    -0.84593  -1.11869   0.83007
C    -1.56571  -1.79744   1.94704
C    -1.31615   0.20393   0.37239
C    -1.51944   0.45621  -0.99746
C    -1.99516   1.69704  -1.41487
C    -2.24647   2.70832  -0.47891
C    -2.04503   2.46346   0.88180
C    -1.59762   1.21184   1.30905
H     1.56181   1.99097   2.53815
H     1.37110   2.65261   0.87921
H     2.95840   2.00559   1.40601
H    -0.37142  -3.70299   0.74055
H     1.17267  -3.12511   1.46108
H     1.08159  -3.51448  -0.28049
H    -0.87202  -2.27307   2.65485
H    -2.21657  -2.58722   1.53239
H    -2.20833  -1.08788   2.47937
H    -1.32016  -0.32535  -1.73149
H    -2.16830   1.87859  -2.47781
H    -2.60503   3.68471  -0.81266
H    -2.23949   3.24762   1.61654
H    -1.43413   1.02767   2.37222
