46
Generated by autodE on: 2022-06-20. E = -885.750166 Ha
C     4.85636  -1.59771   0.97732
C     3.95024  -0.96667   0.20298
C     4.34827  -0.25440  -1.06336
C     2.53557  -0.95108   0.59213
C     1.54547  -0.37168  -0.11203
C     0.11634  -0.36794   0.31859
C    -0.55087   1.02422   0.55735
C    -0.28269   1.51837   1.98292
C    -0.01561   2.12255  -0.39023
O     1.17284   2.47638  -0.36373
N    -0.93288   2.69527  -1.17998
C    -0.60857   3.70410  -2.16303
N    -1.98782   0.78180   0.31874
C    -2.23628  -0.59850  -0.09939
C    -2.77876  -1.45891   1.03881
C    -3.69436  -2.58934   0.66423
O    -2.52359  -1.20036   2.20615
C    -0.85941  -1.11824  -0.63528
C    -0.65113  -2.63045  -0.52506
C    -0.70053  -0.70662  -2.10580
H     4.55602  -2.10907   1.89719
H     5.91757  -1.61955   0.71369
H     3.84073  -0.69027  -1.94013
H     5.43342  -0.30866  -1.22952
H     4.05100   0.80687  -1.02539
H     2.29116  -1.44675   1.53928
H     1.77737   0.12040  -1.05766
H     0.05652  -0.88633   1.28765
H     0.79692   1.64297   2.14500
H    -0.67371   0.78985   2.70702
H    -0.77250   2.48947   2.15860
H    -1.85733   2.26901  -1.12370
H    -0.13285   3.26600  -3.05771
H    -1.52602   4.22051  -2.47403
H     0.08772   4.44147  -1.73766
H    -2.52092   0.99606   1.15805
H    -2.97736  -0.64070  -0.91438
H    -4.70077  -2.15689   0.51996
H    -3.41075  -3.05998  -0.28661
H    -3.74347  -3.33133   1.47227
H    -0.76993  -2.99550   0.50687
H     0.37183  -2.88023  -0.84594
H    -1.34786  -3.18257  -1.17326
H    -0.81743   0.37463  -2.25559
H     0.28830  -0.99993  -2.48847
H    -1.46082  -1.21534  -2.71834
