23
Generated by autodE on: 2022-06-20. E = -351.521383 Ha
C     3.47365   0.02190  -1.49394
C     2.47549   0.36851  -0.65171
C     2.69127   1.38050   0.44438
C     1.15563  -0.24307  -0.79327
C     0.07538   0.01751  -0.01477
C    -1.21270  -0.61943  -0.19904
C    -2.33730  -0.41624   0.53279
C    -2.43545   0.53267   1.69341
C    -3.60419  -1.16035   0.21790
H     4.47065   0.46336  -1.41034
H     3.31407  -0.71343  -2.28863
H     3.72227   1.76138   0.43749
H     2.49102   0.94089   1.43568
H     2.00475   2.23659   0.33597
H     1.05044  -0.97253  -1.60544
H     0.17251   0.74296   0.79752
H    -1.26976  -1.34149  -1.02267
H    -3.23541   1.27280   1.51523
H    -2.72351  -0.01337   2.60927
H    -1.50516   1.07755   1.89903
H    -4.42541  -0.45699  -0.00944
H    -3.93993  -1.74823   1.09116
H    -3.48428  -1.84333  -0.63584
