26
Generated by autodE on: 2022-06-17. E = -739.749798 Ha
C    -3.60243   0.71526  -1.08071
O    -2.20273   0.40038  -1.22839
C    -1.57407  -0.06302  -0.16260
O    -2.05904  -0.25986   0.92439
C    -0.07462  -0.26574  -0.44506
C     0.15184  -0.76052  -1.81147
N     0.34092  -1.16346  -2.88148
O     0.44435  -1.26032   0.45150
N     1.36372  -0.62419   1.35464
C     0.77837  -0.39442   2.54299
N     0.34942  -0.26381   3.61921
C     1.93785   0.52799   0.62225
C     3.11204   0.09271  -0.23610
C     0.69890   1.06211  -0.12912
C     0.94456   1.97449  -1.31778
H    -3.73164   1.49283  -0.31527
H    -3.93030   1.07947  -2.06007
H    -4.16080  -0.18731  -0.79709
H     2.26196   1.26081   1.37343
H     3.89817  -0.33756   0.40048
H     3.53101   0.96241  -0.76123
H     2.81945  -0.65730  -0.98568
H     0.08593   1.59579   0.61218
H    -0.01325   2.28429  -1.76054
H     1.54536   1.48748  -2.09833
H     1.47510   2.87801  -0.98362
