12
Generated by autodE on: 2022-06-17. E = -157.299004 Ha
C     1.59830  -0.51799  -0.03301
C     0.65524   0.63288   0.15319
C    -0.68569   0.61229   0.09043
C    -1.57174  -0.56700  -0.17923
H     2.22713  -0.65850   0.86390
H     2.29521  -0.32245  -0.86718
H     1.08343  -1.46758  -0.23762
H     1.13366   1.59801   0.36320
H    -1.21093   1.56186   0.25450
H    -2.27009  -0.73245   0.66024
H    -1.01115  -1.49865  -0.34170
H    -2.20083  -0.38902  -1.06928
