26
Generated by autodE on: 2022-06-17. E = -739.642518 Ha. Imaginary frequency = -185.3 cm-1
C    -3.24231   1.28123  -0.60152
O    -1.92947   0.74615  -0.86395
C    -1.48431  -0.17877  -0.03154
O    -2.07238  -0.62044   0.92959
C    -0.15497  -0.71155  -0.47459
C     0.04145  -0.94083  -1.86715
N     0.21238  -1.09351  -3.00744
O     0.56519  -1.53182   0.26623
N     0.92012  -1.33451   1.55770
C     0.21232  -0.50256   2.30949
N    -0.21792   0.19702   3.14925
C     2.10055   0.87522   0.56314
C     3.28999   0.23522  -0.06396
C     1.07396   1.45380  -0.14741
C     1.16362   1.84506  -1.59239
H    -3.98963   0.47669  -0.63975
H    -3.42487   2.01664  -1.39188
H    -3.25772   1.76173   0.38638
H     2.08610   0.97140   1.65000
H     3.85439  -0.36579   0.66107
H     3.96963   1.00725  -0.47078
H     2.99867  -0.40469  -0.91329
H     0.27563   1.92601   0.43353
H     0.17269   1.88597  -2.06451
H     1.81606   1.18367  -2.17760
H     1.58917   2.86325  -1.64683
