39
Generated by autodE on: 2022-05-30. E = -1138.720802 Ha
C     3.46724   2.18334  -2.45352
N     2.69781   1.53461  -1.41130
C     3.06878   0.37305  -0.83616
O     4.09769  -0.24815  -1.12657
C     2.12790  -0.14608   0.18736
C     2.10942  -1.39171   0.71163
C     2.96774  -2.48561   0.44811
N     3.64686  -3.44129   0.27967
C     0.83909  -1.45287   1.56741
O     0.74974  -0.10080   2.02552
C     0.87382   0.52305   0.74039
C    -0.30891  -0.10407  -0.06165
C    -0.35312  -1.51991   0.57102
O    -1.61093  -1.61457   1.25279
N    -2.12557  -0.29505   1.48154
C    -1.70443   0.44611   0.28840
C    -1.74105   1.97301   0.47217
C    -2.60632   2.52774   1.55994
O    -1.09318   2.66795  -0.28767
C    -2.67349   0.16474  -0.89901
O    -2.31867   0.40229  -2.05415
N    -3.87226  -0.30205  -0.53610
C    -4.93344  -0.61119  -1.47166
H     4.02591   3.04910  -2.06127
H     4.18296   1.46527  -2.87108
H     2.79801   2.53377  -3.25196
H     1.83951   1.98308  -1.10510
H     0.81137  -2.17648   2.38775
H     0.88887   1.61161   0.83188
H    -0.13122  -0.08280  -1.13974
H    -0.28906  -2.36252  -0.12718
H    -1.59692   0.06566   2.28194
H    -2.15492   2.28429   2.53753
H    -3.60259   2.06160   1.53961
H    -2.68132   3.61782   1.45841
H    -4.00533  -0.45898   0.46099
H    -4.53129  -0.58057  -2.49167
H    -5.33623  -1.61547  -1.27422
H    -5.75791   0.11600  -1.39546
