21
Generated by autodE on: 2022-05-30. E = -607.925399 Ha
C    -3.78168   0.10772   0.41036
N    -2.41969  -0.12506  -0.02756
C    -1.40254   0.71657   0.23008
O    -1.51293   1.79065   0.83666
C    -0.05536   0.31526  -0.23859
C     0.58487  -0.87243  -0.28724
C     0.11210  -2.16840   0.00504
N    -0.25693  -3.25019   0.23381
C     2.07383  -0.50232  -0.59148
C     2.61297   0.19355   0.67603
C     1.96968   1.36335   0.72462
C     1.05077   1.36055  -0.51495
O     1.85383   0.62166  -1.44819
H    -4.10968  -0.67940   1.10744
H    -3.83040   1.07603   0.92118
H    -4.46981   0.12073  -0.44860
H    -2.22740  -0.96871  -0.55890
H     2.68214  -1.28399  -1.05611
H     3.31882  -0.24957   1.37707
H     1.99452   2.15006   1.47717
H     0.71580   2.32399  -0.91019
