41
Generated by autodE on: 2022-06-17. E = -770.879649 Ha
C     5.24133   1.59072   0.40090
C     3.85426   1.05278   0.61601
C     3.38419   1.07360   2.04365
C     3.11738   0.59478  -0.42471
C     1.77321   0.04638  -0.36407
C     1.07659  -0.35321  -1.44355
C    -0.30104  -0.97025  -1.42223
C    -1.14911  -0.51573  -2.62066
C    -0.20973  -2.52563  -1.40875
C    -1.17911  -2.89934  -0.32348
C    -1.57645  -4.29937  -0.01613
N    -1.59441  -1.88958   0.35228
N    -1.03283  -0.73041  -0.13970
C    -1.52482   0.48949   0.31387
C    -1.07342   1.71914  -0.21827
C    -1.56196   2.92890   0.27733
C    -2.50149   2.96370   1.31223
C    -2.95079   1.74963   1.84360
C    -2.47819   0.53117   1.35819
H     5.54223   1.55331  -0.65647
H     5.31426   2.63710   0.74797
H     5.97901   1.02063   0.99391
H     3.43337   2.10076   2.44602
H     2.35877   0.70513   2.17554
H     4.05346   0.46473   2.67708
H     3.56774   0.63755  -1.42381
H     1.29363  -0.03279   0.61558
H     1.52960  -0.28197  -2.43888
H    -2.12677  -1.02107  -2.60040
H    -0.63858  -0.78822  -3.55667
H    -1.31664   0.56939  -2.62385
H    -0.46802  -2.97173  -2.38078
H     0.80022  -2.87939  -1.14281
H    -0.68750  -4.91008   0.21873
H    -2.05884  -4.76673  -0.89138
H    -2.26891  -4.33430   0.83636
H    -0.33099   1.73498  -1.01180
H    -1.19232   3.86111  -0.15809
H    -2.87611   3.91516   1.69550
H    -3.68706   1.74529   2.65202
H    -2.83876  -0.40517   1.77870
