41
Generated by autodE on: 2022-06-17. E = -770.798956 Ha. Imaginary frequency = -376.1 cm-1
C     3.67836   3.56078  -0.92632
C     2.55326   2.63592  -1.29704
C     1.46442   3.26292  -2.12171
C     2.54876   1.34121  -0.88624
C     1.54000   0.34035  -1.15470
C     1.56453  -0.91164  -0.61266
C     0.57868  -1.94091  -0.83686
C    -0.56444  -1.66947  -1.77256
C     0.65251  -3.16191  -0.18899
C    -0.65388  -3.08473   1.54661
C    -1.08199  -4.43603   1.93660
N    -0.73491  -1.93788   1.90713
N    -0.33473  -0.73070   1.79685
C    -1.16896   0.17387   1.17018
C    -0.63376   1.45765   0.91263
C    -1.38368   2.41294   0.22877
C    -2.68333   2.12321  -0.20605
C    -3.22214   0.85490   0.04945
C    -2.47999  -0.11545   0.72134
H     4.16251   3.97563  -1.82931
H     3.30320   4.43064  -0.35677
H     4.44775   3.05741  -0.32210
H     0.64361   2.57606  -2.36427
H     1.03474   4.13095  -1.59059
H     1.87457   3.65796  -3.06856
H     3.39102   1.00867  -0.26655
H     0.71204   0.61255  -1.81265
H     2.38627  -1.16886   0.06602
H    -1.20938  -0.86334  -1.38074
H    -0.20936  -1.33613  -2.76172
H    -1.19007  -2.56300  -1.90896
H     0.07731  -4.00904  -0.57063
H     1.53902  -3.40590   0.40559
H    -0.20038  -5.08889   2.03150
H    -1.72318  -4.86223   1.14939
H    -1.63132  -4.42101   2.88969
H     0.37722   1.68064   1.25499
H    -0.94716   3.39544   0.03263
H    -3.27026   2.87611  -0.73659
H    -4.23634   0.61693  -0.28237
H    -2.90845  -1.10156   0.91251
