44
Generated by autodE on: 2022-06-18. E = -772.284124 Ha
C     5.02244   0.05825   0.58611
C     3.95231  -0.32095  -0.14209
C     4.10634  -1.01893  -1.46803
C     2.59851  -0.05458   0.35741
C     1.45267  -0.38469  -0.26824
C     0.09675  -0.12669   0.30300
C    -0.71816  -1.40298   0.68443
C    -0.22834  -1.98537   2.00806
C    -0.64134  -2.49871  -0.38784
N    -2.11002  -0.88527   0.75215
C    -2.52144  -0.30688   2.02952
N    -2.22977   0.09258  -0.28212
C    -3.09331  -0.32797  -1.37119
C    -0.88762   0.68164  -0.59027
C    -0.52043   0.67909  -2.07663
C    -1.02600   2.13750  -0.08216
C    -1.83530   3.09131  -0.92385
O    -0.53294   2.51229   0.97127
H     4.90065   0.56461   1.54866
H     6.04360  -0.12656   0.24081
H     3.62049  -2.00880  -1.45384
H     3.62404  -0.44493  -2.27673
H     5.16599  -1.15692  -1.72551
H     2.53943   0.45922   1.32445
H     1.50064  -0.89784  -1.23142
H     0.22920   0.44679   1.22879
H     0.79916  -2.35590   1.87587
H    -0.85493  -2.83323   2.32592
H    -0.20889  -1.23886   2.81367
H     0.37688  -2.90997  -0.45293
H    -0.91894  -2.13354  -1.38484
H    -1.32592  -3.31891  -0.12441
H    -3.53454   0.10118   1.90882
H    -2.56981  -1.08670   2.80213
H    -1.86813   0.50815   2.39386
H    -3.27881   0.51420  -2.05263
H    -4.06533  -0.62424  -0.95099
H    -2.70784  -1.17569  -1.96844
H     0.44056   1.19491  -2.21894
H    -0.41616  -0.34333  -2.46104
H    -1.27055   1.19592  -2.68715
H    -2.14947   3.94623  -0.31030
H    -2.70808   2.60663  -1.38120
H    -1.19807   3.46496  -1.74291
