21
Generated by autodE on: 2022-07-27. E = -420.720703 Ha
C    -2.36575  -1.79129  -0.11054
N    -1.51510  -0.63460   0.03368
N    -0.34378  -0.69278  -0.49264
C     0.04866  -1.87694  -1.29902
C     0.59188   0.30222  -0.31670
C     1.73831   0.38284  -1.29277
C     0.53120   1.18392   0.82677
C     1.72150   2.11695   1.01894
O    -0.37224   1.20556   1.68322
H    -3.32303  -1.55533   0.37228
H    -1.95894  -2.69651   0.37807
H    -2.57234  -2.05357  -1.16384
H    -0.52194  -1.88861  -2.23736
H    -0.18670  -2.77937  -0.72381
H     1.11766  -1.86287  -1.50821
H     1.43044   0.10029  -2.30960
H     2.10097   1.41606  -1.35914
H     2.60747  -0.24388  -1.01937
H     1.61806   2.60593   1.99675
H     2.68543   1.58676   0.97727
H     1.74395   2.89480   0.23785
