44
Generated by autodE on: 2022-06-18. E = -772.229980 Ha. Imaginary frequency = -320.1 cm-1
C     4.71010   0.74616  -1.28413
C     3.60406  -0.03368  -1.23594
C     3.36525  -1.09925  -2.27744
C     2.61359   0.14467  -0.18233
C     1.47035  -0.58620  -0.04138
C     0.47785  -0.37518   0.97053
C    -0.53083  -1.31686   1.32392
C    -0.99116  -1.26398   2.76462
C    -0.44146  -2.71626   0.74418
N    -2.20763  -0.61510   0.49512
C    -3.21498  -1.64236   0.33978
N    -1.84990   0.03250  -0.61519
C    -2.00490  -0.58605  -1.94091
C    -0.96726   1.05725  -0.45244
C    -0.14134   1.48756  -1.63120
C    -1.05138   1.95576   0.71163
C     0.01769   3.02936   0.81244
O    -1.94840   1.93211   1.56193
H     4.88763   1.52355  -0.53424
H     5.45891   0.62759  -2.07216
H     3.27506  -2.09631  -1.81529
H     2.42201  -0.91910  -2.81987
H     4.18395  -1.13185  -3.01024
H     2.81810   0.94016   0.54424
H     1.27533  -1.38135  -0.76632
H     0.70197   0.39896   1.70923
H    -0.24800  -1.75433   3.41817
H    -1.94817  -1.78720   2.90945
H    -1.11024  -0.22433   3.10069
H    -1.30621  -3.32919   1.03242
H    -0.37705  -2.71588  -0.35288
H     0.45865  -3.22573   1.12960
H    -2.96168  -2.46546  -0.35172
H    -4.16625  -1.19585   0.00134
H    -3.39846  -2.08039   1.32968
H    -1.97378   0.18775  -2.71331
H    -2.97879  -1.08087  -2.00272
H    -1.21094  -1.32591  -2.12838
H    -0.67553   2.21690  -2.26645
H     0.78345   1.96512  -1.29060
H     0.15990   0.64089  -2.25899
H    -0.08333   3.52630   1.78623
H     1.03382   2.62087   0.70921
H    -0.11457   3.78073   0.01660
