34
Generated by autodE on: 2022-07-27. E = -840.612313 Ha
C     3.61053  -0.97979  -2.76580
N     3.05107  -0.29741  -1.61794
C     1.74502  -0.47056  -1.27852
O     0.96064  -1.05228  -2.05672
C     1.29661   0.04306   0.01877
N    -0.07496   0.08129   0.28444
C    -1.08315   0.46422  -0.46466
C    -0.82948   1.13421  -1.76842
C    -2.45510   0.27450   0.03510
C    -2.73551  -0.04226   1.38256
C    -4.04779  -0.20877   1.81672
C    -5.11335  -0.07874   0.91772
C    -4.85186   0.22605  -0.42015
C    -3.53914   0.40641  -0.85684
C     2.06367   0.14964   1.22899
O     1.56055   0.29068   2.34969
O     3.41046   0.08152   1.07008
C     4.20330   0.15793   2.25734
H     4.65284  -0.66085  -2.89542
H     3.05340  -0.72964  -3.68082
H     3.59302  -2.07896  -2.65583
H     3.67805   0.02923  -0.89011
H    -0.28578  -0.18839   1.24943
H    -0.82165   0.41558  -2.60176
H     0.16007   1.61471  -1.74967
H    -1.59842   1.89334  -1.96021
H    -1.93540  -0.14655   2.11883
H    -4.24072  -0.44203   2.86604
H    -6.14113  -0.21588   1.26107
H    -5.67404   0.32426  -1.13237
H    -3.35651   0.63524  -1.90682
H     5.24703   0.08852   1.92777
H     3.96963  -0.67252   2.93982
H     4.03748   1.11185   2.77968
