34
Generated by autodE on: 2022-06-03. E = -840.614285 Ha
C    -3.96186   2.96089   0.62331
N    -2.93930   1.94057   0.67592
C    -2.04166   1.78011  -0.32064
O    -2.01418   2.55270  -1.31086
C    -1.09163   0.67186  -0.22902
N    -0.22631   0.65975  -1.32538
C     0.94902   0.14268  -1.58608
C     1.45172   0.25783  -2.98961
C     1.79894  -0.49890  -0.57083
C     1.90385   0.04134   0.72526
C     2.74353  -0.54642   1.66727
C     3.47996  -1.69198   1.33855
C     3.39126  -2.22716   0.05112
C     2.56863  -1.62610  -0.90450
C    -1.22590  -0.40743   0.69838
O    -1.90094  -0.37668   1.73855
O    -0.56861  -1.53135   0.33147
C    -0.46577  -2.57724   1.29572
H    -4.52247   2.95124   1.56673
H    -4.67321   2.79737  -0.20485
H    -3.52345   3.96282   0.48912
H    -2.91883   1.24831   1.42262
H    -0.61629   1.26940  -2.05892
H     0.82012   0.93022  -3.58813
H     1.44512  -0.73298  -3.47557
H     2.49164   0.61677  -3.00188
H     1.32178   0.92393   0.99536
H     2.82086  -0.11400   2.66736
H     4.12495  -2.16131   2.08489
H     3.96676  -3.11688  -0.21402
H     2.50452  -2.05213  -1.90694
H     0.00127  -2.21043   2.22213
H    -1.45402  -2.99943   1.53196
H     0.16980  -3.34699   0.84087
