13
Generated by autodE on: 2022-06-03. E = -642.534044 Ha
C     4.14360   0.51871   0.30739
O     2.70756   0.61820   0.37266
C     2.02205  -0.34701  -0.22548
O     2.49869  -1.29271  -0.81454
C     0.58543  -0.14207  -0.09446
C    -0.61566  -0.02953  -0.02223
C    -2.07526   0.10010   0.06962
F    -2.55035  -0.58814   1.11673
F    -2.44237   1.38000   0.22021
F    -2.67379  -0.36767  -1.03437
H     4.47989  -0.41005   0.78932
H     4.47615   0.53530  -0.73994
H     4.52628   1.39207   0.84638
