20
Generated by autodE on: 2022-06-09. E = -661.125673 Ha
C     4.08368   1.60574  -0.79890
N     3.26413   0.53240  -0.27044
C     1.91945   0.60310  -0.30139
O     1.30022   1.56582  -0.76816
C     1.18681  -0.56049   0.26774
C     1.80381  -1.69982   0.82857
N     2.35487  -2.62378   1.28281
N    -0.13102  -0.49095   0.23416
C    -1.28429  -0.31346   0.14596
C    -2.72557  -0.23466   0.12248
O    -3.41243  -1.12783   0.57121
O    -3.13230   0.89543  -0.43300
C    -4.55984   1.09334  -0.51643
H     3.88682   2.55419  -0.27448
H     5.13932   1.34108  -0.66481
H     3.89206   1.76550  -1.87195
H     3.72029  -0.28614   0.11905
H    -4.69312   2.06588  -1.00169
H    -4.99761   1.10016   0.49132
H    -5.01571   0.29475  -1.11780
