60
Generated by autodE on: 2022-06-09. E = -1969.496332 Ha. Imaginary frequency = -278.8 cm-1
C   -11.14515 -16.50802  -7.85165
N   -12.14424 -16.60416  -6.80521
C   -11.98951 -17.46527  -5.78693
O   -11.04435 -18.24868  -5.68468
C   -13.08816 -17.48305  -4.75562
C   -14.26206 -16.69164  -4.86577
N   -15.20731 -16.01938  -4.97504
N   -13.11004 -18.54153  -3.97451
C   -12.68714 -19.11849  -3.01077
C   -12.80558 -20.48763  -2.46368
O   -13.59277 -20.75099  -1.58207
O   -11.93498 -21.30286  -3.02335
C   -11.82178 -22.62197  -2.44699
C   -11.73087 -17.40777  -1.85957
C   -11.82038 -16.39931  -2.57297
C   -12.05469 -14.96807  -2.71955
Cl  -10.76727 -14.09844  -1.56151
C   -11.76599 -14.38253  -4.08715
C   -10.51406 -14.62382  -4.67847
C   -10.19019 -14.06172  -5.90991
C   -11.12776 -13.27537  -6.59133
C   -12.38294 -13.05487  -6.02395
C   -12.69941 -13.59616  -4.77123
C   -13.42606 -14.63224  -2.10404
C   -13.71683 -15.21753  -0.71020
C   -14.14635 -16.70761  -0.65006
C   -13.23678 -17.72226   0.06885
C   -11.76996 -17.85353  -0.44647
C   -11.18216 -19.25812  -0.20990
C   -11.45801 -19.90488   1.11368
O   -10.49743 -19.78888  -1.06608
C   -10.79061 -16.91450   0.36197
C    -9.34725 -16.91861  -0.05082
O   -11.19187 -16.28657   1.31720
H   -10.13981 -16.36757  -7.42919
H   -11.38488 -15.65151  -8.49145
H   -11.13495 -17.42256  -8.46621
H   -12.86538 -15.89011  -6.75609
H   -11.53105 -22.53551  -1.39079
H   -12.77617 -23.15796  -2.53600
H   -11.03974 -23.12812  -3.02248
H    -9.78427 -15.24393  -4.15394
H    -9.20749 -14.24647  -6.34875
H   -10.87906 -12.84250  -7.56289
H   -13.12494 -12.44971  -6.54990
H   -13.68165 -13.40138  -4.34379
H   -13.50175 -13.53615  -2.06349
H   -14.19531 -14.97868  -2.81061
H   -12.85918 -15.02744  -0.05031
H   -14.53828 -14.61138  -0.29918
H   -15.11211 -16.76769  -0.12299
H   -14.35428 -17.07019  -1.66811
H   -13.18509 -17.49084   1.14145
H   -13.71789 -18.70461  -0.03014
H   -11.46070 -19.17315   1.93403
H   -12.46286 -20.35645   1.07453
H   -10.72256 -20.69809   1.29942
H    -8.86306 -17.76910   0.46071
H    -8.86250 -15.99380   0.28533
H    -9.21683 -17.06014  -1.13017
