38
Generated by autodE on: 2022-06-01. E = -3546.557458 Ha
C     3.94814  -0.37954   2.24959
N     3.00682  -0.08564   1.18365
C     2.78053  -0.95489   0.19769
O     3.32018  -2.04808   0.07709
C     1.68102  -0.51432  -0.83191
C     2.05550  -1.03145  -2.15205
N     2.33039  -1.43187  -3.20433
N     1.51594   0.93276  -0.88655
C     0.31752   1.20692  -0.46214
C    -0.15340   2.59637  -0.32959
C    -1.47407   2.95134  -0.65780
C    -1.88881   4.27915  -0.54737
C    -0.99961   5.25868  -0.09348
C     0.31476   4.91083   0.23740
C     0.73931   3.58814   0.11420
C    -0.48823  -0.00018  -0.12408
C    -1.85321  -0.01616   0.43076
C    -2.87118  -0.75834  -0.18998
C    -4.16270  -0.76196   0.34129
C    -4.44830  -0.03153   1.49887
C    -3.43740   0.70619   2.12424
C    -2.14769   0.71958   1.59209
C     0.32753  -1.05105  -0.37538
Br   -0.01531  -2.87116  -0.13221
H     4.97871  -0.44366   1.86589
H     3.70072  -1.33678   2.73194
H     3.89549   0.42164   2.99598
H     2.55884   0.82521   1.14266
H    -2.17011   2.19424  -1.01950
H    -2.91250   4.54971  -0.81509
H    -1.33134   6.29509   0.00299
H     1.01035   5.67321   0.59506
H     1.76151   3.30847   0.37492
H    -2.65409  -1.31891  -1.10099
H    -4.94960  -1.33556  -0.15367
H    -5.45910  -0.03561   1.91323
H    -3.65505   1.27618   3.03032
H    -1.35965   1.29742   2.07861
