24
Generated by autodE on: 2022-06-01. E = -664.319379 Ha
C    -4.02218   1.56831  -1.93133
N    -2.72653   1.18745  -2.46549
C    -1.63617   0.73094  -1.80087
O    -0.52783   0.66100  -2.36403
C    -1.76552   0.30937  -0.39536
C    -2.93259   0.05872   0.34891
N    -3.88718  -0.17093   0.98623
N    -0.59047  -0.00141   0.19297
C     0.49093  -0.22084   0.56183
C     1.81506  -0.50583   0.96512
C     2.12585  -0.72110   2.32396
C     3.44285  -1.00230   2.67781
C     4.44342  -1.05737   1.70031
C     4.12946  -0.83571   0.35402
C     2.81850  -0.56492  -0.02708
H    -3.92339   2.17457  -1.01857
H    -4.53314   2.17940  -2.68646
H    -4.66307   0.70172  -1.70795
H    -2.52690   1.43734  -3.42932
H     1.33840  -0.66883   3.07699
H     3.69147  -1.17530   3.72679
H     5.47403  -1.27377   1.98937
H     4.91200  -0.87868  -0.40624
H     2.55334  -0.39423  -1.07161
