38
Generated by autodE on: 2022-06-01. E = -3546.428138 Ha. Imaginary frequency = -385.5 cm-1
C     3.93763  -0.20337   2.09089
N     3.03886   0.07615   0.98815
C     3.02071  -0.69931  -0.11411
O     3.80321  -1.63680  -0.30350
C     1.96174  -0.39786  -1.11920
C     2.00046  -1.11303  -2.34535
N     2.00394  -1.71833  -3.34148
N     1.31318   0.77891  -1.09790
C     0.31540   1.33366  -0.73919
C    -0.51448   2.48361  -0.63306
C    -1.23974   2.91950  -1.76081
C    -2.14647   3.96698  -1.62140
C    -2.34175   4.57033  -0.37362
C    -1.62053   4.13294   0.74348
C    -0.71154   3.08545   0.62582
C    -0.71584  -0.60361   0.25553
C    -1.85430   0.07739   0.80308
C    -2.91625   0.50102  -0.02256
C    -3.99078   1.20507   0.51820
C    -4.02790   1.50088   1.88577
C    -2.98129   1.08063   2.71270
C    -1.89954   0.37868   2.17984
C     0.12546  -1.47830  -0.01824
Br    0.60285  -3.24989   0.03199
H     4.96181  -0.35281   1.72065
H     3.63993  -1.10965   2.64547
H     3.93160   0.64961   2.78072
H     2.28727   0.74119   1.13566
H    -1.09287   2.42698  -2.72319
H    -2.71038   4.31027  -2.49108
H    -3.06255   5.38426  -0.27055
H    -1.77722   4.60352   1.71598
H    -0.15984   2.72042   1.49224
H    -2.87912   0.28800  -1.09211
H    -4.80228   1.53399  -0.13500
H    -4.86799   2.05992   2.30381
H    -3.00154   1.30895   3.78095
H    -1.07327   0.06743   2.82190
