56
Generated by autodE on: 2022-06-27. E = -1411.754965 Ha
C    -4.05851  -2.99932   1.06365
N    -3.29792  -1.91626   0.47032
C    -1.96699  -1.96468   0.37019
O    -1.29956  -2.93672   0.74106
C    -1.23206  -0.70713  -0.17783
C    -2.01760  -0.04549  -1.31952
C    -1.36513   0.09457  -2.66134
O    -3.16638   0.33035  -1.12586
N     0.12112  -1.06237  -0.57532
C     1.12179  -0.52233   0.35257
C     1.36843  -1.52254   1.50122
O     1.20283  -1.30444   2.68385
O     1.78861  -2.69338   1.02066
C     1.93420  -3.76966   1.95830
C     2.46783  -0.25060  -0.31492
C     3.54020   0.19893   0.47081
C     4.77323   0.49245  -0.11439
C     4.94928   0.33862  -1.49434
C     3.88464  -0.11082  -2.27962
C     2.64881  -0.40419  -1.69264
C     0.43897   0.75587   0.87557
C     0.57115   1.92527  -0.11360
C    -0.60187   2.86805  -0.05553
C    -0.56637   4.17529  -0.72836
N     0.56105   4.46032  -1.42898
O    -1.50433   4.99725  -0.68276
C    -1.73622   2.53811   0.62406
N    -1.94241   1.35868   1.26393
C    -3.19618   1.12113   1.96298
C    -1.01100   0.28460   1.06792
H    -3.74705  -3.17739   2.10513
H    -3.92113  -3.93755   0.50325
H    -5.12210  -2.73218   1.05221
H    -3.76858  -1.08313   0.12387
H    -1.06819  -0.89924  -3.03152
H    -0.44303   0.68776  -2.59349
H    -2.07108   0.56377  -3.35845
H     0.22486  -2.06806  -0.68719
H     2.66676  -3.50836   2.73495
H     2.28553  -4.63068   1.37844
H     0.96409  -3.99446   2.42451
H     3.40898   0.32496   1.54877
H     5.59905   0.84455   0.50836
H     5.91357   0.56811  -1.95396
H     4.01332  -0.23372  -3.35782
H     1.81375  -0.74758  -2.30297
H     0.85040   1.03990   1.85133
H     0.70612   1.54353  -1.13829
H     1.50453   2.46104   0.12017
H     0.61482   5.34548  -1.92054
H     1.33249   3.81097  -1.51377
H    -2.55373   3.25905   0.68670
H    -4.01420   0.85631   1.27459
H    -3.48863   2.02354   2.51883
H    -3.06320   0.30242   2.68244
H    -1.04698  -0.34881   1.96160
