36
Generated by autodE on: 2022-07-27. E = -953.993539 Ha
C    -3.97917  -2.25007   0.94618
N    -3.44317  -0.99152   0.47726
C    -2.12863  -0.83878   0.22478
O    -1.30175  -1.74216   0.47635
C    -1.71762   0.43008  -0.40067
N    -0.36933   0.64279  -0.60878
C     0.69636   0.19098   0.02451
C     0.53986  -0.36271   1.40808
O    -0.14453   0.17278   2.25676
O     1.32374  -1.41316   1.62095
C     1.26485  -1.99821   2.93085
C     2.01903   0.38040  -0.56613
C     3.16139   0.50990   0.25414
C     4.41217   0.74235  -0.31192
C     4.55295   0.84467  -1.70092
C     3.43100   0.70723  -2.52408
C     2.17561   0.47077  -1.96616
C    -2.62665   1.38225  -0.98505
C    -2.05485   2.56603  -1.74075
O    -3.86802   1.28116  -0.87754
H    -3.92564  -3.04135   0.17793
H    -5.03096  -2.10832   1.22580
H    -3.42443  -2.60478   1.82775
H    -4.04906  -0.25467   0.10561
H    -0.15218   1.23481  -1.41547
H     1.56526  -1.26563   3.69331
H     1.96421  -2.84156   2.91558
H     0.24404  -2.35034   3.13691
H     3.06688   0.44822   1.33880
H     5.28458   0.84926   0.33627
H     5.53698   1.02197  -2.14050
H     3.53552   0.76690  -3.60953
H     1.31940   0.32062  -2.62732
H    -1.48465   3.22873  -1.07030
H    -2.88556   3.13173  -2.18065
H    -1.37865   2.25115  -2.55449
