36
Generated by autodE on: 2022-06-27. E = -953.993525 Ha
C     4.07211   1.53143  -1.67142
N     3.48120   0.71951  -0.63094
C     2.14648   0.66423  -0.45678
O     1.35769   1.23343  -1.24241
C     1.66206  -0.06523   0.72791
N     0.29631  -0.18049   0.89903
C    -0.69179  -0.20517   0.02479
C    -0.38835  -0.52433  -1.40744
O     0.37418  -1.41049  -1.73709
O    -1.13713   0.17997  -2.24810
C    -0.94589  -0.08216  -3.64683
C    -2.06903  -0.07420   0.49347
C    -2.35942   0.65021   1.66945
C    -3.66632   0.72790   2.14827
C    -4.70686   0.09732   1.45920
C    -4.43280  -0.61188   0.28368
C    -3.12995  -0.69693  -0.20018
C     2.49926  -0.50238   1.81510
C     1.84544  -1.10551   3.04366
O     3.74624  -0.41822   1.77948
H     3.61283   1.30917  -2.64633
H     3.94703   2.61215  -1.48266
H     5.14574   1.31131  -1.72981
H     4.03975   0.34136   0.13924
H    -0.01146  -0.22634   1.87451
H     0.09124   0.14579  -3.93136
H    -1.17007  -1.13376  -3.87514
H    -1.64132   0.57975  -4.17480
H    -1.56577   1.18613   2.19382
H    -3.87501   1.29894   3.05551
H    -5.73134   0.16533   1.83169
H    -5.24151  -1.10719  -0.25791
H    -2.93084  -1.26593  -1.10897
H     1.15169  -0.39509   3.52671
H     1.27524  -2.01403   2.79381
H     2.63184  -1.36192   3.76439
