40
Generated by autodE on: 2022-10-07. E = -1276.245250 Ha
C    -3.39018  -2.42937   2.24188
N    -2.88278  -1.33090   1.44279
C    -1.59115  -0.97574   1.47203
O    -0.75717  -1.54236   2.18198
C    -1.16261   0.16301   0.49629
C    -2.19489   1.29108   0.51185
O    -3.34424   1.12554   0.13838
O    -1.74952   2.41641   1.05220
C    -2.65869   3.52726   1.05023
O     0.10884   0.63305   0.88836
C     1.09225   0.34883  -0.12265
C     2.43348   0.05337   0.49884
C     2.54013  -0.60615   1.73227
C     3.79611  -0.91161   2.26388
C     4.96024  -0.56981   1.56738
C     4.86019   0.08305   0.33462
C     3.60453   0.39649  -0.19307
C     0.49397  -0.80891  -0.92443
C     1.08785  -1.03267  -2.33038
O     0.99838  -2.19798  -2.79205
O     1.59265  -0.03764  -2.91649
C    -1.00813  -0.43810  -0.93394
C    -1.33126   0.56380  -2.06771
O    -1.17803   1.79044  -1.81738
O    -1.68940   0.06526  -3.16089
H    -4.46608  -2.53435   2.05686
H    -3.23058  -2.24855   3.31674
H    -2.89081  -3.37587   1.98039
H    -3.51128  -0.79921   0.84525
H    -3.57736   3.27830   1.60010
H    -2.91073   3.80106   0.01540
H    -2.13016   4.35100   1.54337
H     1.18438   1.22020  -0.78801
H     1.63168  -0.88046   2.26908
H     3.86626  -1.42183   3.22797
H     5.94136  -0.80972   1.98453
H     5.76379   0.35534  -0.21650
H     3.52500   0.90374  -1.15684
H     0.61382  -1.74019  -0.35170
H    -1.62965  -1.33012  -1.07077
