10
Generated by autodE on: 2022-10-07. E = -455.046563 Ha
O    -0.77917  -2.08765  -0.46766
C    -0.31858  -1.09007  -1.08044
O    -0.81866  -0.53326  -2.09216
C     1.03292  -0.57404  -0.62350
C     1.27698   0.36502   0.30568
C     0.22775   1.10560   1.09993
O    -0.98940   0.86036   0.86525
O     0.65676   1.93106   1.95611
H     1.88758  -1.04060  -1.13286
H     2.31274   0.63989   0.53613
