40
Generated by autodE on: 2022-10-07. E = -1276.159091 Ha. Imaginary frequency = -299.0 cm-1
C    -3.83007  -2.41601   1.85240
N    -3.08840  -1.18305   1.69729
C    -1.73319  -1.17996   1.68827
O    -1.05929  -2.13850   2.11140
C    -1.07777  -0.00038   1.09410
C    -1.76774   1.19189   0.65112
O    -2.99172   1.28389   0.52999
O    -0.95122   2.21785   0.35882
C    -1.53416   3.34699  -0.30070
O     0.26251  -0.03765   1.28597
C     1.18190   0.45059   0.48463
C     2.54868   0.05226   0.77209
C     2.84109  -1.00872   1.65303
C     4.16400  -1.38290   1.87550
C     5.20679  -0.71490   1.21895
C     4.92115   0.33169   0.33429
C     3.59995   0.71673   0.11036
C     0.60027  -0.50269  -1.47529
C     0.91632   0.60067  -2.49020
O     1.18066   0.17355  -3.64217
O     0.95659   1.80585  -2.12239
C    -0.65947  -0.98171  -1.18092
C    -1.96618  -0.49911  -1.76026
O    -1.97575   0.59768  -2.38332
O    -2.96448  -1.24941  -1.57382
H    -3.82586  -3.01025   0.92060
H    -4.87246  -2.18681   2.11232
H    -3.39417  -3.02687   2.65354
H    -3.52144  -0.41627   1.18256
H    -2.26437   3.84836   0.35100
H    -2.02374   3.02637  -1.23035
H    -0.70227   4.02412  -0.52637
H     0.98496   1.36018  -0.07949
H     2.02000  -1.53096   2.14731
H     4.38796  -2.20330   2.56129
H     6.24270  -1.01358   1.39554
H     5.73323   0.84970  -0.18084
H     3.36356   1.52619  -0.58380
H     1.42626  -1.20250  -1.31672
H    -0.72186  -1.94115  -0.66116
