45
Generated by autodE on: 2022-06-20. E = -1034.847093 Ha
C    -0.94767   3.40998   1.27961
C    -1.86803   2.27069   0.95864
O    -2.96290   2.14558   1.48250
C    -1.40456   1.25138  -0.09722
C    -2.24188   1.45282  -1.35548
O    -0.03304   1.47253  -0.42038
C     0.77644   0.52015   0.26211
C     2.15486   0.46482  -0.34797
C     2.41809   1.01549  -1.60928
C     3.69615   0.92409  -2.17024
C     4.72479   0.27909  -1.47852
C     4.46941  -0.26833  -0.21625
C     3.19520  -0.17253   0.34708
C    -0.05530  -0.78341   0.17932
C     0.31506  -1.76334   1.29652
N    -0.01671  -3.04727   1.09149
O     0.85293  -1.37958   2.34310
C     0.02172  -1.39048  -1.23784
C    -1.20199  -2.18514  -1.58884
C    -2.37844  -1.96246  -0.96139
N    -2.57007  -1.03076   0.03096
C    -3.77194  -1.05134   0.84362
C    -1.47353  -0.21387   0.48891
H    -0.66637   3.94338   0.35850
H    -0.01356   3.01695   1.71271
H    -1.43226   4.09373   1.98845
H    -1.96317   0.71217  -2.11729
H    -2.06791   2.46169  -1.75937
H    -3.31002   1.34427  -1.12711
H     0.86432   0.79424   1.32691
H     1.61839   1.52273  -2.14913
H     3.88688   1.36018  -3.15398
H     5.72281   0.20685  -1.91741
H     5.26884  -0.76871   0.33569
H     2.99944  -0.59508   1.33399
H    -0.52161  -3.32936   0.25349
H     0.16276  -3.72555   1.82584
H     0.93261  -2.00388  -1.31644
H     0.16090  -0.56298  -1.95426
H    -1.15629  -2.92291  -2.39139
H    -3.27253  -2.53758  -1.21680
H    -3.62058  -1.59305   1.79707
H    -4.08731  -0.02588   1.08159
H    -4.58162  -1.54660   0.29022
H    -1.56125  -0.12847   1.58154
