25
Generated by autodE on: 2022-06-20. E = -577.060946 Ha
C     2.63836   1.31502   1.16821
C     3.07723   0.04262   0.46420
O     4.28602  -0.28073   0.43694
C     2.08060  -0.76277  -0.15964
C     2.31384  -2.02980  -0.88475
O     0.82713  -0.28905  -0.05451
C    -0.26535  -0.80176  -0.52247
C    -1.50837  -0.12723  -0.29271
C    -2.69401  -0.69326  -0.81650
C    -3.92196  -0.06801  -0.61499
C    -3.99324   1.12817   0.10923
C    -2.82311   1.69753   0.63292
C    -1.59089   1.08289   0.43817
H     1.91964   1.09957   1.97434
H     3.52465   1.80264   1.59535
H     2.14551   2.00886   0.46917
H     3.38562  -2.26155  -0.86046
H     1.75564  -2.87098  -0.43018
H     1.98623  -1.96647  -1.94042
H    -0.21490  -1.73743  -1.08364
H    -2.63604  -1.62655  -1.38167
H    -4.83084  -0.51443  -1.02477
H    -4.95724   1.61710   0.26645
H    -2.87760   2.63064   1.19846
H    -0.68191   1.52768   0.84682
