20
Generated by autodE on: 2022-06-20. E = -457.715315 Ha
C    -3.10117  -0.51501   0.46958
N    -1.82108   0.09672   0.15339
C    -1.78824   1.39141  -0.37922
C    -0.64604   1.99894  -0.73736
C     0.70969   1.34971  -0.60621
C     0.57418  -0.05119  -0.03129
C     1.75253  -0.90303   0.19604
N     2.95046  -0.37078  -0.15446
O     1.68892  -2.05112   0.68159
C    -0.64243  -0.57069   0.29772
H    -3.67190   0.11357   1.17138
H    -2.92961  -1.49260   0.93734
H    -3.71056  -0.66154  -0.43780
H    -2.76328   1.87169  -0.47919
H    -0.70135   3.01234  -1.14149
H     1.21645   1.32637  -1.59292
H     1.37144   1.97509   0.02767
H     3.04361   0.55294  -0.55684
H     3.78735  -0.92643  -0.01625
H    -0.71104  -1.58006   0.70641
