45
Generated by autodE on: 2022-06-20. E = -1034.777653 Ha. Imaginary frequency = -278.2 cm-1
C    -2.95161   2.25545   2.06228
C    -1.56913   2.00774   1.48302
O    -0.56862   2.13238   2.23424
C    -1.48625   1.64555   0.10860
C    -2.54197   1.89601  -0.91584
O    -0.27518   1.43122  -0.49324
C     0.75799   0.85452   0.09744
C     1.90311   0.57139  -0.74908
C     1.79503   0.51124  -2.15379
C     2.90303   0.17518  -2.92805
C     4.13145  -0.11303  -2.31819
C     4.24757  -0.05527  -0.92500
C     3.14344   0.28678  -0.14403
C    -0.20065  -1.16026   0.59943
C     0.39373  -1.22835   1.95730
N     1.60482  -1.82792   2.04792
O    -0.16858  -0.77258   2.96772
C     0.35204  -2.07372  -0.49007
C    -0.48901  -1.99709  -1.73630
C    -1.77290  -1.61242  -1.68442
N    -2.36965  -1.19507  -0.48606
C    -3.81892  -1.09511  -0.39852
C    -1.58695  -0.88315   0.57887
H    -2.88092   2.19731   3.15725
H    -3.69891   1.53140   1.70777
H    -3.30862   3.26371   1.79180
H    -2.56907   1.07672  -1.65268
H    -2.34599   2.82903  -1.47596
H    -3.53568   1.98297  -0.46318
H     0.90834   1.07586   1.15110
H     0.83445   0.72087  -2.62579
H     2.81055   0.13101  -4.01580
H     4.99646  -0.38052  -2.92943
H     5.20457  -0.27387  -0.44567
H     3.22918   0.33306   0.94316
H     2.07979  -1.81734   2.94449
H     2.13361  -2.10015   1.22866
H     1.39796  -1.82775  -0.73142
H     0.38139  -3.12059  -0.12173
H    -0.05875  -2.29815  -2.69287
H    -2.43062  -1.59747  -2.55529
H    -4.09274  -0.40910   0.41222
H    -4.27414  -2.07987  -0.19727
H    -4.22989  -0.70845  -1.34103
H    -2.10344  -0.64950   1.50664
