53
Generated by autodE on: 2022-06-08. E = -1430.675208 Ha
C    -4.93108   1.03103  -0.39180
N    -3.50182   1.03847  -0.14589
C    -2.64672   1.44055  -1.08247
O    -2.97423   1.81803  -2.21100
C    -1.15764   1.54441  -0.66742
F    -1.07348   2.75811   0.01324
C    -0.22848   1.67525  -1.93815
C    -0.06272   3.12536  -2.24872
N     0.14233   4.23157  -2.52622
C    -0.72486   1.05981  -3.20193
N    -0.87891   0.61329  -4.26121
N     0.99743   1.00865  -1.57533
C     2.19748   1.35712  -2.31130
C     1.08861   0.68783  -0.14529
C     1.69270   1.86765   0.64304
C     1.92846  -0.59098   0.01094
C     1.82832  -1.61668  -0.94498
C     2.54032  -2.80635  -0.79866
C     3.37830  -2.99684   0.30562
C     3.50803  -1.97681   1.24804
C     2.79744  -0.78017   1.09593
C    -0.46219   0.45439   0.20472
C    -0.95754  -0.91061  -0.33848
O    -1.35785  -0.98500  -1.50323
N    -0.94529  -1.95963   0.49082
C    -1.25743  -3.29587   0.01866
C    -0.82447   0.57314   1.70172
O    -1.89720   1.06753   2.06694
N     0.01878   0.02275   2.58507
C    -0.28505  -0.00236   4.00673
H    -5.16060   0.46709  -1.30779
H    -5.32738   2.05292  -0.51211
H    -5.43387   0.55269   0.45748
H    -3.13231   0.92948   0.80615
H     2.54922   2.38643  -2.11504
H     3.00102   0.65789  -2.04663
H     2.00719   1.25565  -3.39062
H     2.73483   2.00898   0.32591
H     1.69338   1.71248   1.72671
H     1.14363   2.79412   0.44340
H     1.18660  -1.47797  -1.81379
H     2.44116  -3.58905  -1.55427
H     3.93384  -3.93008   0.42226
H     4.17189  -2.10029   2.10654
H     2.94268   0.00449   1.83872
H    -0.52087  -1.86375   1.40743
H    -1.39866  -3.95385   0.88449
H    -0.44203  -3.69582  -0.60683
H    -2.17869  -3.28053  -0.57917
H     0.91588  -0.34632   2.28210
H     0.51145  -0.55290   4.52122
H    -0.34172   1.01774   4.41697
H    -1.24799  -0.50288   4.18759
