27
Generated by autodE on: 2022-06-08. E = -802.270374 Ha
C    -1.40502   3.96348   1.54846
N    -1.16713   2.95541   0.53534
C    -0.70254   1.72699   0.81253
O    -0.40655   1.32038   1.93966
C    -0.56078   0.82926  -0.38559
F    -1.16463   1.30265  -1.48635
C     0.05238  -0.36452  -0.39475
C     0.70531  -0.92897   0.84323
O     0.20767  -1.90572   1.41745
N     1.88947  -0.39159   1.17210
C     2.55995  -0.73813   2.41042
C     0.07012  -1.22941  -1.63015
O     0.17105  -0.75615  -2.76524
N    -0.02580  -2.54804  -1.38627
C    -0.01991  -3.52095  -2.45975
H    -1.03171   3.59714   2.51148
H    -0.88186   4.89660   1.29160
H    -2.48067   4.18163   1.64250
H    -1.39706   3.17546  -0.42882
H     2.14587   0.47986   0.71781
H     2.07911  -0.24848   3.27464
H     2.52412  -1.82476   2.56325
H     3.60809  -0.41786   2.35763
H    -0.13651  -2.84785  -0.41936
H    -0.91181  -3.42207  -3.09985
H    -0.00716  -4.52793  -2.02575
H     0.86841  -3.39538  -3.09773
