83
Generated by autodE on: 2022-07-04. E = -2030.969075 Ha
C    -7.41935  -1.30119  -2.36985
N    -7.71952  -1.33896  -0.95713
C    -8.39068  -0.38279  -0.30198
O    -8.74473   0.67488  -0.83132
C    -8.69180  -0.70331   1.21046
C    -8.19933   0.45265   2.10832
C    -7.24727   1.38629   1.67576
C    -6.69623   2.31491   2.56406
C    -7.08016   2.32258   3.90741
C    -8.02082   1.38833   4.35191
C    -8.56841   0.46598   3.45945
C   -10.18616  -1.12856   1.40829
C   -10.24954  -2.38741   1.93499
C   -11.46708  -3.32204   2.19997
C   -11.11482  -4.69998   2.82605
C   -12.11710  -3.72157   0.83684
C   -12.49311  -2.75262   3.26001
C   -12.65039  -1.26479   3.54806
C   -13.40638  -0.49052   2.48475
C   -12.80943  -0.61287   1.08841
C   -11.30975  -0.18905   0.86573
C   -11.26725  -0.11961  -0.68087
O   -11.64582   0.82541  -1.33629
O   -10.91875  -1.28953  -1.20696
C   -10.95426  -1.39639  -2.63765
C   -11.23011   1.27419   1.40858
F   -11.15687   1.28794   2.75435
F   -10.20573   2.00007   0.95881
F   -12.33821   1.97580   1.09147
C    -8.82052  -2.93996   2.19466
C    -8.58938  -4.24117   1.37592
C    -8.92075  -4.19966   0.01001
C    -8.72457  -5.30213  -0.82156
C    -8.18597  -6.48511  -0.30395
C    -7.86715  -6.54733   1.05343
C    -8.07341  -5.43974   1.88453
C    -8.50249  -3.05989   3.70610
C    -7.27562  -3.57597   4.16211
C    -6.95049  -3.59337   5.52157
C    -7.84211  -3.08868   6.47046
C    -9.05954  -2.55979   6.03692
C    -9.37443  -2.54448   4.67655
N    -7.97406  -1.91594   1.57076
C    -6.55944  -1.84290   1.85227
H    -8.00109  -2.05883  -2.91877
H    -6.34975  -1.49613  -2.54319
H    -7.66652  -0.30810  -2.76433
H    -7.53849  -2.18428  -0.42229
H    -6.92790   1.40346   0.63421
H    -5.95850   3.03426   2.19996
H    -6.64859   3.04741   4.60184
H    -8.33166   1.37400   5.39947
H    -9.29810  -0.25396   3.81930
H   -10.57004  -4.61995   3.77397
H   -12.06912  -5.20706   3.03704
H   -10.55441  -5.34920   2.15042
H   -11.61185  -4.61198   0.43856
H   -13.17707  -3.97954   0.98333
H   -12.04135  -2.96487   0.05314
H   -13.47891  -3.17396   3.00274
H   -12.22167  -3.21621   4.21881
H   -13.19717  -1.17473   4.50154
H   -11.67017  -0.80073   3.72582
H   -14.43472  -0.88466   2.41521
H   -13.50430   0.56365   2.78036
H   -13.40136   0.00903   0.40541
H   -12.92764  -1.63269   0.73123
H   -10.60775  -2.40910  -2.87061
H   -10.29010  -0.64773  -3.08898
H   -11.98086  -1.24928  -3.00191
H    -9.36366  -3.29716  -0.40770
H    -9.00103  -5.23701  -1.87674
H    -8.02636  -7.35093  -0.95087
H    -7.46105  -7.46769   1.48023
H    -7.86059  -5.54347   2.94584
H    -6.54729  -3.97168   3.45843
H    -5.98764  -4.00365   5.83543
H    -7.58892  -3.10310   7.53312
H    -9.77274  -2.15072   6.75645
H   -10.32195  -2.11098   4.37569
H    -6.09851  -2.82995   1.69726
H    -6.08124  -1.14927   1.14846
H    -6.31420  -1.49995   2.87385
