48
Generated by autodE on: 2022-07-04. E = -1074.917117 Ha
C     4.72253  -1.68303  -1.49131
N     3.70190  -1.20137  -0.58604
C     2.39089  -1.55239  -0.74525
O     2.09189  -2.47466  -1.54436
C     1.40500  -0.83351   0.04248
C     1.58576   0.54511   0.51516
C     2.26489   1.51949  -0.24829
C     2.39970   2.83355   0.20771
C     1.84603   3.22123   1.43041
C     1.15541   2.27115   2.19620
C     1.02951   0.95882   1.74917
N     0.14052  -1.40958   0.19436
C     0.06768  -2.81325   0.63329
C    -0.97062  -0.67942   0.00743
C    -0.90931   0.48247  -0.89931
C    -0.30562   0.35813  -2.16745
C    -0.25948   1.44516  -3.03412
C    -0.79727   2.68246  -2.64766
C    -1.39102   2.81633  -1.39158
C    -1.45294   1.72132  -0.52356
C    -2.20445  -0.94683   0.75027
C    -3.45930  -0.76003   0.13100
C    -4.63958  -0.98653   0.83553
C    -4.59549  -1.38745   2.17670
C    -3.35888  -1.55571   2.80858
C    -2.17403  -1.33708   2.10625
H     5.69421  -1.27899  -1.17926
H     4.53524  -1.37529  -2.53557
H     4.78260  -2.78235  -1.47648
H     3.91983  -0.40432  -0.00003
H     2.66790   1.25030  -1.22569
H     2.92629   3.56460  -0.41124
H     1.94462   4.25045   1.78286
H     0.71719   2.55702   3.15593
H     0.48512   0.23323   2.35787
H     0.77787  -3.38290   0.02538
H     0.34622  -2.89688   1.69193
H    -0.94124  -3.20725   0.47210
H     0.13337  -0.59812  -2.45893
H     0.19915   1.33225  -4.01929
H    -0.75074   3.53611  -3.32778
H    -1.80765   3.77712  -1.08052
H    -1.90929   1.83050   0.46161
H    -3.49944  -0.44869  -0.91419
H    -5.60176  -0.84982   0.33654
H    -5.52227  -1.56011   2.72862
H    -3.31618  -1.84908   3.86006
H    -1.21674  -1.44325   2.61793
