48
Generated by autodE on: 2022-07-27. E = -1074.916132 Ha
C     1.84394  -1.11551  -2.94719
N     1.73781  -0.33661  -1.73038
C     0.89460   0.74168  -1.66582
O     0.46632   1.23910  -2.73006
C     0.57637   1.30303  -0.35651
C     0.02898   2.64352  -0.22362
C     0.38900   3.69571  -1.10331
C    -0.15401   4.97074  -0.96574
C    -1.06798   5.25656   0.05822
C    -1.43660   4.23417   0.93814
C    -0.90742   2.95056   0.79592
N     0.59653   0.46596   0.76915
C     1.26689   0.97050   1.98497
C     0.08653  -0.77096   0.73015
C    -0.89899  -1.14213  -0.30393
C    -1.98912  -0.30405  -0.62052
C    -2.92562  -0.69768  -1.57068
C    -2.78937  -1.92405  -2.23849
C    -1.71263  -2.75881  -1.93470
C    -0.77714  -2.37453  -0.96974
C     0.56021  -1.82054   1.64660
C     1.93355  -2.02226   1.88909
C     2.35891  -3.04644   2.73571
C     1.42442  -3.88229   3.35517
C     0.05786  -3.69856   3.11123
C    -0.37144  -2.68564   2.25610
H     0.85840  -1.45517  -3.30885
H     2.46349  -1.99937  -2.74786
H     2.31677  -0.53764  -3.75698
H     2.02279  -0.78840  -0.87043
H     1.10794   3.50093  -1.89895
H     0.14858   5.75880  -1.66066
H    -1.48683   6.25986   0.16457
H    -2.15608   4.43155   1.73731
H    -1.23449   2.16400   1.47950
H     0.85644   0.48723   2.87864
H     1.10360   2.05047   2.04659
H     2.34708   0.78907   1.91911
H    -2.10457   0.65244  -0.10994
H    -3.77303  -0.04529  -1.79362
H    -3.52447  -2.22429  -2.98864
H    -1.59562  -3.71519  -2.44945
H     0.06850  -3.02570  -0.74300
H     2.67233  -1.39192   1.39121
H     3.42733  -3.19731   2.90590
H     1.75976  -4.68150   4.02010
H    -0.67646  -4.35123   3.58875
H    -1.43688  -2.54750   2.06303
