35
Generated by autodE on: 2022-07-04. E = -955.993960 Ha
C    -0.35535  -3.16611  -1.99204
O    -0.18243  -2.06231  -1.08516
C     0.69505  -1.13384  -1.43663
O     1.35512  -1.16717  -2.45181
C     0.76238   0.03926  -0.43655
C     2.24036   0.26476  -0.06871
F     2.97501   0.68613  -1.10570
F     2.35861   1.18675   0.90028
F     2.80093  -0.87009   0.38928
C    -0.04258  -0.17597   0.76472
C    -1.02413  -0.05519   1.46566
C    -2.32968   0.37868   1.97118
C    -2.14704   1.45721   3.05495
C    -3.15429  -0.79093   2.53068
C    -3.03809   0.97054   0.70896
C    -2.22171   1.93061  -0.18141
C    -1.34717   1.32605  -1.31717
C     0.18436   1.31459  -1.13756
H    -1.11591  -3.80981  -1.53659
H     0.59110  -3.71217  -2.10926
H    -0.69640  -2.80115  -2.97098
H    -1.58858   2.32350   2.67066
H    -3.13286   1.80435   3.40203
H    -1.59867   1.05299   3.91947
H    -3.25975  -1.59319   1.78459
H    -2.67881  -1.21281   3.42953
H    -4.16123  -0.44042   2.80656
H    -3.93806   1.49337   1.07378
H    -3.39420   0.12956   0.09095
H    -1.60480   2.59549   0.44619
H    -2.95588   2.59284  -0.66616
H    -1.52939   1.92788  -2.22044
H    -1.70316   0.31221  -1.56712
H     0.67779   1.39461  -2.11666
H     0.49468   2.18615  -0.54161
