51
Generated by autodE on: 2022-06-23. E = -1171.481324 Ha
C     5.31930  -0.66025   0.74084
C     4.00435  -0.87059   0.95217
C     3.50106  -1.61786   2.15891
C     3.01928  -0.33920   0.00353
C     1.68812  -0.49580   0.10325
C     0.70070   0.17033  -0.80816
C    -0.42416  -0.78088  -1.34936
C    -0.01289  -2.25909  -1.32750
C    -0.80241  -0.37002  -2.78721
C    -1.56097  -0.44415  -0.37525
C    -2.76186  -1.28320  -0.14974
C    -3.38849  -1.23672   1.11143
C    -4.52093  -2.00480   1.37520
C    -5.05518  -2.83178   0.38049
C    -4.44510  -2.88497  -0.87548
C    -3.30449  -2.12263  -1.13906
N    -1.41123   0.64167   0.29730
C    -0.12509   1.25106  -0.02984
C    -0.35004   2.53376  -0.84796
O     0.11995   2.76198  -1.94046
O    -1.13625   3.37871  -0.18521
C    -1.41871   4.63743  -0.81938
C     0.60437   1.65314   1.25674
O     0.36512   1.21264   2.35775
O     1.58377   2.51591   0.98651
C     2.46211   2.86875   2.06724
H     5.66986  -0.10828  -0.13666
H     6.07634  -1.03195   1.43708
H     2.92230  -2.50854   1.86282
H     2.82127  -0.98510   2.75389
H     4.33053  -1.94212   2.80290
H     3.42064   0.24899  -0.83006
H     1.26905  -1.07071   0.93289
H     1.23842   0.65039  -1.63370
H     0.94304  -2.38591  -1.85762
H    -0.76074  -2.88623  -1.83157
H     0.11272  -2.63926  -0.30421
H    -1.10638   0.68378  -2.84568
H    -1.62257  -0.98530  -3.18192
H     0.06960  -0.51082  -3.44455
H    -2.96363  -0.59645   1.88511
H    -4.98754  -1.96206   2.36212
H    -5.94305  -3.43443   0.58580
H    -4.85808  -3.52393  -1.65928
H    -2.85535  -2.17364  -2.12937
H    -0.48608   5.19282  -0.99342
H    -1.93495   4.47435  -1.77607
H    -2.06579   5.18534  -0.12529
H     3.16702   3.59969   1.65574
H     3.00063   1.97610   2.41737
H     1.89261   3.31001   2.89684
