23
Generated by autodE on: 2022-06-23. E = -351.521383 Ha
C     3.55037  -0.57363  -1.16852
C     2.55470  -0.25007  -0.31428
C     2.84437   0.16298   1.10615
C     1.16426  -0.29855  -0.76198
C     0.07866  -0.00212  -0.00405
C    -1.28168  -0.06878  -0.49777
C    -2.41647   0.20577   0.19408
C    -2.45028   0.63800   1.63253
C    -3.76382   0.08810  -0.46053
H     3.33662  -0.87334  -2.19916
H     4.59910  -0.54655  -0.85986
H     2.45813   1.17505   1.31240
H     3.92436   0.15731   1.31021
H     2.35243  -0.51338   1.82486
H     1.00688  -0.60400  -1.80347
H     0.22803   0.30312   1.03516
H    -1.39037  -0.37659  -1.54486
H    -3.04576  -0.07399   2.23110
H    -2.95791   1.61430   1.72616
H    -1.45725   0.72355   2.09196
H    -4.39956  -0.63615   0.08003
H    -3.69011  -0.23001  -1.51084
H    -4.30234   1.05220  -0.42408
