28
Generated by autodE on: 2022-06-23. E = -819.896254 Ha
C    -2.12739  -3.32798   1.23333
O    -1.51329  -2.11157   0.80174
C    -2.34297  -1.06230   0.57829
O    -3.55421  -1.14277   0.72984
C    -1.61216   0.11374   0.14954
N    -0.27185   0.02036   0.02393
C     0.88248  -0.06058  -0.08402
C     2.28690  -0.16044  -0.21495
C     2.88258  -1.43036  -0.36997
C     4.26672  -1.51687  -0.49050
C     5.05182  -0.35794  -0.47305
C     4.45474   0.89972  -0.32619
C     3.07393   1.01063  -0.18867
C    -2.24004   1.38508  -0.14993
O    -3.43546   1.63311  -0.07394
O    -1.33041   2.31362  -0.53609
C    -1.84186   3.60931  -0.85700
H    -2.83996  -3.69773   0.48081
H    -1.31197  -4.05002   1.36218
H    -2.65508  -3.18442   2.18820
H     2.25714  -2.32390  -0.38944
H     4.73650  -2.49573  -0.60503
H     6.13638  -0.43550  -0.57479
H     5.07071   1.80103  -0.31333
H     2.59487   1.98296  -0.06567
H    -2.34507   4.05987   0.01160
H    -2.55208   3.55478  -1.69573
H    -0.97350   4.21566  -1.14190
