39
Generated by autodE on: 2022-05-29. E = -973.158370 Ha
C     0.24226   2.88543  -2.66504
O    -0.18037   2.16477  -1.49555
C    -0.28308   0.84402  -1.60240
O    -0.07176   0.23525  -2.63120
C    -0.65171   0.15523  -0.29140
C     0.61504  -0.51624   0.27439
C     1.82556   0.16989   0.75141
C     1.93481   1.57272   0.75997
C     3.09614   2.19162   1.23046
C     4.16503   1.42656   1.70024
C     4.06713   0.02882   1.69674
C     2.91350  -0.59277   1.22898
N     0.53478  -1.80336   0.31562
N    -0.68750  -2.20162  -0.17061
C    -1.05819  -3.46762  -0.10334
N    -1.41230  -4.58197  -0.07231
C    -1.58195  -1.08258  -0.53052
C    -2.74530  -0.86657   0.44848
C    -3.61202   0.26374  -0.14181
C    -2.73924   1.53351   0.08982
C    -1.46187   0.97635   0.75905
C    -2.04901  -0.15493   1.62474
H     1.24133   2.54880  -2.97596
H     0.26781   3.94113  -2.37335
H    -0.47267   2.73118  -3.48522
H     1.12037   2.19311   0.39392
H     3.16039   3.28203   1.22789
H     5.07124   1.91312   2.06817
H     4.89794  -0.57935   2.06193
H     2.84093  -1.68057   1.22833
H    -1.90654  -1.19860  -1.57136
H    -3.28898  -1.79404   0.67409
H    -3.83716   0.09312  -1.20489
H    -4.56859   0.32968   0.39551
H    -3.23064   2.23193   0.78239
H    -2.53065   2.08427  -0.83533
H    -0.86101   1.72778   1.28213
H    -1.29266  -0.76882   2.13467
H    -2.76125   0.22029   2.37379
