23
Generated by autodE on: 2022-05-29. E = -500.847961 Ha
C     3.41662   0.20471   0.94309
O     2.04592  -0.15706   0.74078
C     1.42621   0.38971  -0.32130
O     1.98923   1.15232  -1.09151
C     0.02767  -0.03961  -0.42463
C    -0.89483   0.52221  -1.23689
C    -2.23408  -0.07918  -0.88153
C    -2.59400   0.51546   0.52576
C    -1.54141  -0.13957   1.46483
C    -0.70171  -1.01917   0.48470
C    -1.80453  -1.50824  -0.47802
H     3.51324   1.29006   1.09420
H     3.74326  -0.33161   1.84184
H     4.02858  -0.09548   0.07969
H    -0.72931   1.34948  -1.92959
H    -3.02694   0.02717  -1.63202
H    -3.61759   0.21822   0.79815
H    -2.55121   1.61392   0.52708
H    -0.91089   0.59401   1.98714
H    -2.02287  -0.77364   2.22407
H    -0.07517  -1.77672   0.96877
H    -2.60338  -2.07429   0.02512
H    -1.40954  -2.09194  -1.32285
