39
Generated by autodE on: 2022-05-29. E = -973.070569 Ha. Imaginary frequency = -299.8 cm-1
C     1.31791   2.58985  -2.03671
O     0.29640   1.98497  -1.23527
C    -0.01731   0.70621  -1.50812
O     0.49634   0.08364  -2.42679
C    -0.99412   0.16884  -0.55572
C     0.81930  -0.83743   0.65595
C     1.90572   0.08050   0.76158
C     1.79277   1.23439   1.56308
C     2.83354   2.15846   1.58342
C     3.97521   1.94867   0.80037
C     4.08518   0.80762  -0.00297
C     3.05576  -0.12937  -0.02973
N     0.39228  -1.96107   0.69497
N    -0.56516  -2.65540   0.15065
C    -1.22256  -3.52419   0.89949
N    -1.90011  -4.31582   1.43741
C    -1.78293  -0.93699  -0.83360
C    -3.00099  -0.84535   0.05206
C    -3.83969   0.33098  -0.55562
C    -2.97731   1.58632  -0.23049
C    -1.74312   0.97842   0.50261
C    -2.41577  -0.15415   1.30253
H     2.24920   2.00968  -1.97693
H     1.47179   3.59339  -1.62333
H     0.99690   2.65889  -3.08643
H     0.89077   1.39211   2.15517
H     2.75385   3.05094   2.20705
H     4.78454   2.68210   0.81406
H     4.97645   0.65032  -0.61365
H     3.11885  -1.01601  -0.66206
H    -1.73872  -1.51290  -1.75693
H    -3.55984  -1.77818   0.19604
H    -4.01560   0.19489  -1.63242
H    -4.81992   0.37363  -0.05823
H    -3.51367   2.27640   0.43776
H    -2.67826   2.14811  -1.12678
H    -1.13761   1.70093   1.06051
H    -1.70842  -0.78067   1.86346
H    -3.19545   0.21090   1.98714
