37
Generated by autodE on: 2022-06-17. E = -876.049772 Ha. Imaginary frequency = -374.4 cm-1
C    -3.11731   0.17787   2.17025
C    -2.16034   0.21369   0.99204
O    -1.65073   1.31655   0.67773
C    -1.89809  -0.99828   0.29604
C    -2.40502  -2.23775   0.73699
N    -2.79275  -3.28699   1.09037
C     1.36506  -1.22684   0.98012
C     1.68363  -1.50329  -0.34388
C     2.21371  -0.39371  -1.23655
C     1.82551   0.96515  -0.69168
C     1.97456   2.20022  -1.49730
N     2.55390   2.05336  -2.71030
O     1.58826   3.31207  -1.09723
C     1.34632   1.10267   0.56579
N     1.16692   0.03230   1.42826
C     0.62555   0.23750   2.77000
C    -0.18346  -1.98966  -1.06090
N    -1.11759  -1.03785  -0.89885
C    -1.18880   0.06147  -1.85625
H    -3.38565  -0.83347   2.50193
H    -4.04231   0.71060   1.89221
H    -2.66544   0.72819   3.00930
H     1.17540  -2.02528   1.69982
H     2.05957  -2.51016  -0.53908
H     3.31498  -0.47160  -1.32452
H     1.82863  -0.52400  -2.26260
H     2.91198   1.16765  -3.04555
H     2.68390   2.87697  -3.28841
H     1.07943   2.07924   0.96403
H    -0.32934  -0.29771   2.87378
H     0.46072   1.30698   2.93663
H     1.32940  -0.14299   3.52443
H     0.18195  -2.13229  -2.08116
H    -0.31350  -2.89617  -0.46813
H    -2.22271   0.42197  -1.92433
H    -0.54424   0.90072  -1.55838
H    -0.86655  -0.30682  -2.83967
