25
Generated by autodE on: 2022-06-20. E = -577.060984 Ha
C     1.91639   1.86185  -1.72827
C     2.17355   2.21723  -0.27417
O     3.01142   3.09820   0.02371
C     1.43850   1.52467   0.73112
C     1.55298   1.73034   2.19065
O     0.57162   0.60800   0.26654
C    -0.22088  -0.15593   0.94783
C    -1.07076  -1.07886   0.25663
C    -1.07830  -1.19293  -1.15483
C    -1.92207  -2.10736  -1.77603
C    -2.77164  -2.92329  -1.01434
C    -2.77172  -2.81757   0.38187
C    -1.93134  -1.90580   1.01574
H     2.12976   0.79933  -1.92431
H     2.56424   2.48299  -2.36086
H     0.86475   2.03893  -2.00337
H     1.84959   0.80052   2.71347
H     2.30826   2.50192   2.38329
H     0.59251   2.05148   2.63814
H    -0.22210  -0.07911   2.03714
H    -0.41765  -0.55930  -1.74915
H    -1.92130  -2.18941  -2.86543
H    -3.43118  -3.63933  -1.50965
H    -3.43195  -3.45124   0.97838
H    -1.92961  -1.82167   2.10517
