25
Generated by autodE on: 2022-07-27. E = -577.053703 Ha
C     0.34021   4.39472   0.61413
C     0.14887   2.89399   0.72198
O    -0.17537   2.37645   1.82447
C     0.35324   2.14840  -0.46277
C     0.73584   2.71407  -1.79285
O     0.20594   0.80163  -0.47490
C    -0.11291  -0.04380   0.45094
C    -0.18761  -1.43637   0.11570
C    -0.53569  -2.35069   1.13694
C    -0.62251  -3.71331   0.86269
C    -0.36530  -4.18818  -0.42905
C    -0.01911  -3.28947  -1.44910
C     0.07070  -1.92678  -1.18668
H     1.36255   4.64628   0.28770
H    -0.35029   4.83444  -0.12406
H     0.15394   4.84942   1.59651
H     0.83678   1.90124  -2.52586
H     1.69617   3.25682  -1.75410
H    -0.01694   3.42461  -2.17660
H    -0.31271   0.33902   1.45061
H    -0.73512  -1.97514   2.14339
H    -0.89191  -4.41103   1.65875
H    -0.43381  -5.25714  -0.64305
H     0.18118  -3.66090  -2.45677
H     0.33970  -1.22816  -1.98074
