20
Generated by autodE on: 2022-06-20. E = -457.715300 Ha
C    -3.11442  -0.61484   0.14976
N    -1.82859   0.05384   0.03721
C    -1.77997   1.45230  -0.02121
C    -0.62606   2.13515  -0.08692
C     0.72723   1.46810  -0.10755
C     0.57571  -0.04208  -0.01980
C     1.74848  -0.93076  -0.00451
N     2.95921  -0.32379  -0.08768
O     1.66895  -2.17329   0.08154
C    -0.65158  -0.63166   0.04557
H    -3.77349  -0.34066  -0.68931
H    -3.62327  -0.34783   1.09089
H    -2.96009  -1.70080   0.13166
H    -2.75302   1.94680  -0.00919
H    -0.66986   3.22579  -0.13139
H     1.35355   1.85171   0.72386
H     1.28041   1.75866  -1.02473
H     3.06588   0.67880  -0.17314
H     3.79245  -0.90182  -0.08648
H    -0.73042  -1.71820   0.10722
