46
Generated by autodE on: 2022-06-21. E = -1106.254801 Ha
C    -3.77222  -2.68173   1.22475
O    -2.81143  -1.80072   0.62383
C    -1.55450  -1.89090   1.05700
O    -1.20981  -2.67735   1.92118
C    -0.56876  -1.03192   0.25460
C    -1.20025   0.20590  -0.36669
C    -0.91087   0.57664  -1.68502
C    -1.42616   1.75943  -2.22519
C    -2.23475   2.59388  -1.45033
C    -2.53226   2.23014  -0.13222
C    -2.02198   1.04581   0.40130
C     0.68293  -0.69899   1.16911
C     1.87297  -1.23721   0.34338
C     2.42698  -0.23024  -0.67422
C     2.31940   1.20103  -0.20882
C     2.98563   2.29704  -0.92274
N     3.68759   1.95818  -2.03586
O     2.93192   3.49086  -0.55727
C     1.56101   1.53246   0.87751
N     0.81492   0.66583   1.60023
C     0.20787   1.05291   2.86105
N     1.30153  -2.40510  -0.32111
N     0.04668  -1.90915  -0.78210
C    -0.76503  -2.91572  -1.42569
H    -4.73081  -2.45340   0.74508
H    -3.83419  -2.49949   2.30709
H    -3.49539  -3.73029   1.04444
H    -0.27252  -0.07062  -2.28490
H    -1.18842   2.02967  -3.25704
H    -2.63398   3.52069  -1.86930
H    -3.16691   2.87128   0.48434
H    -2.27226   0.77262   1.42725
H     0.59333  -1.32890   2.06107
H     2.66754  -1.56591   1.02565
H     1.88974  -0.36652  -1.62676
H     3.47967  -0.49113  -0.87385
H     3.71694   1.01373  -2.39760
H     4.13190   2.69662  -2.56970
H     1.53429   2.57073   1.21503
H     0.03227   2.13739   2.87472
H     0.84955   0.78849   3.72110
H    -0.75649   0.54323   2.99089
H     1.12626  -3.11762   0.40327
H    -1.68714  -2.45489  -1.80515
H    -0.20646  -3.33273  -2.27656
H    -1.04346  -3.75720  -0.75586
