20
Generated by autodE on: 2022-06-21. E = -457.715337 Ha
C     3.15556  -0.33019  -0.18319
N     1.81365   0.22495  -0.11983
C     1.64578   1.60088   0.07974
C     0.43961   2.16844   0.23780
C    -0.84943   1.38463   0.21793
C    -0.56799  -0.09589   0.01878
C    -1.66074  -1.08073  -0.02913
N    -2.91471  -0.58532   0.12364
O    -1.47972  -2.30413  -0.19764
C     0.70340  -0.56496  -0.12731
H     3.09718  -1.39200  -0.45330
H     3.75484   0.19174  -0.94524
H     3.67531  -0.24190   0.78593
H     2.57138   2.17914   0.09423
H     0.38928   3.25001   0.38278
H    -1.41410   1.55812   1.15691
H    -1.51701   1.77101  -0.57959
H    -3.69795  -1.22872   0.09460
H    -3.10209   0.40036   0.25593
H     0.87797  -1.63317  -0.26542
