26
Generated by autodE on: 2022-06-21. E = -648.494661 Ha
C    -1.71464  -3.09134   0.29754
O    -0.91803  -1.91323   0.15324
C    -1.56199  -0.72985   0.26912
O    -2.77898  -0.67986   0.48097
C    -0.67543   0.39621   0.11578
C     0.77608   0.18894  -0.13882
C     1.63778  -0.15946   0.91482
C     2.99809  -0.37346   0.68099
C     3.51628  -0.24131  -0.61164
C     2.66708   0.09974  -1.66898
C     1.30564   0.30892  -1.43420
N    -1.18181   1.66318   0.20883
C    -0.22749   2.78833   0.07970
N    -2.39720   2.02583   0.39948
H    -1.02700  -3.93692   0.17556
H    -2.49986  -3.13178  -0.47225
H    -2.18367  -3.12974   1.29214
H     1.23083  -0.26207   1.92343
H     3.65634  -0.64264   1.51052
H     4.58058  -0.40719  -0.79508
H     3.06490   0.19862  -2.68181
H     0.64055   0.56774  -2.26148
H     0.60857   2.64522   0.77323
H    -0.78153   3.70008   0.31797
H     0.15546   2.82805  -0.94661
H    -2.95085   1.15902   0.46681
