26
Generated by autodE on: 2022-07-27. E = -648.494727 Ha
C    -1.37317  -0.78733   3.17057
O    -0.89121  -0.36520   1.89294
C     0.04508  -1.14918   1.31152
O     0.45930  -2.17350   1.86608
C     0.46232  -0.64470   0.02830
C    -0.12517   0.60901  -0.51930
C     0.49570   1.84895  -0.29669
C    -0.06737   3.02636  -0.79580
C    -1.26300   2.97894  -1.51971
C    -1.89433   1.75044  -1.74023
C    -1.32928   0.57405  -1.24158
N     1.40220  -1.33136  -0.68858
C     1.78488  -0.77713  -2.00727
N     2.01418  -2.41375  -0.37404
H    -1.84745  -1.77799   3.10431
H    -0.55529  -0.82890   3.90555
H    -2.11321  -0.03808   3.47665
H     1.42738   1.88401   0.27292
H     0.42746   3.98393  -0.61673
H    -1.70427   3.89930  -1.90973
H    -2.83040   1.70844  -2.30222
H    -1.82126  -0.38669  -1.41058
H     0.89454  -0.68395  -2.63932
H     2.23683   0.21213  -1.87162
H     2.50355  -1.47384  -2.44653
H     1.66075  -2.68643   0.55517
