46
Generated by autodE on: 2022-06-21. E = -1106.196912 Ha. Imaginary frequency = -457.5 cm-1
C    -2.81887  -1.81258   2.97625
O    -2.35334  -1.11967   1.81928
C    -1.50874  -1.79935   1.00210
O    -1.18575  -2.96610   1.27207
C    -1.06752  -1.02173  -0.13657
C    -1.80556   0.19340  -0.55401
C    -1.13928   1.38664  -0.89785
C    -1.85333   2.52798  -1.26886
C    -3.24981   2.50642  -1.30943
C    -3.92751   1.32631  -0.98112
C    -3.21523   0.18629  -0.61147
C     1.11264  -0.71513   1.60620
C     1.93334  -1.48382   0.76306
C     2.98191  -0.77259  -0.08075
C     2.66294   0.69878  -0.25591
C     3.31432   1.52983  -1.27976
N     4.22314   0.90995  -2.07267
O     3.05362   2.74020  -1.43919
C     1.80783   1.32411   0.60298
N     1.10355   0.66763   1.56864
C     0.10836   1.36852   2.36877
N     0.82202  -2.40341  -0.47892
N    -0.08401  -1.55567  -0.95213
C     0.31740  -0.90401  -2.19362
H    -3.48921  -1.11613   3.49491
H    -1.98201  -2.08590   3.63677
H    -3.36936  -2.72418   2.69948
H    -0.05261   1.43109  -0.87776
H    -1.30992   3.44067  -1.52543
H    -3.80771   3.40002  -1.59920
H    -5.01904   1.29206  -1.02057
H    -3.75512  -0.72900  -0.36367
H     0.59276  -1.16122   2.45272
H     2.26001  -2.43332   1.19148
H     3.06094  -1.28606  -1.05253
H     3.97412  -0.88934   0.39808
H     4.45594  -0.06970  -1.97379
H     4.67143   1.44474  -2.80846
H     1.64146   2.39904   0.53731
H     0.28479   2.44893   2.30719
H     0.18314   1.05385   3.42046
H    -0.90599   1.14240   2.00823
H     0.34475  -2.94570   0.24849
H    -0.55864  -0.52305  -2.72884
H     1.01184  -0.06929  -1.99604
H     0.82998  -1.65491  -2.80472
