27
Generated by autodE on: 2022-06-12. E = -744.685981 Ha
C    -4.35563  -0.39902  -0.00327
C    -3.17672   0.52420  -0.21824
O    -3.35544   1.71973  -0.49418
C    -1.87040  -0.06160  -0.07209
C    -1.55438  -1.37892   0.33929
O    -2.17091  -2.38882   0.62463
O    -0.12019  -1.39416   0.41329
C     0.35274  -0.19756   0.06482
C     1.79218   0.02238   0.05933
C     2.35964   1.26722   0.39359
C     3.74588   1.41756   0.39994
C     4.57496   0.33751   0.08137
C     4.01527  -0.90555  -0.23455
C     2.63214  -1.06874  -0.24126
N    -0.64048   0.61705  -0.24521
C    -0.50321   1.95736  -0.81727
H    -4.35070  -0.80622   1.01998
H    -5.28120   0.16709  -0.17132
H    -4.31414  -1.26052  -0.68741
H     1.72653   2.10652   0.68021
H     4.18068   2.38312   0.66621
H     5.66003   0.46253   0.08700
H     4.66047  -1.75214  -0.47816
H     2.19191  -2.03557  -0.48890
H    -0.68178   2.72099  -0.04969
H    -1.24406   2.07131  -1.61284
H     0.50454   2.06780  -1.22928
