66
Generated by autodE on: 2022-06-12. E = -1720.900259 Ha. Imaginary frequency = -311.7 cm-1
C    -3.74464  -9.45382  -1.28807
N    -3.34783  -8.79084  -0.06221
C    -4.04068  -8.91759   1.08529
O    -4.99539  -9.69252   1.20469
C    -3.49591  -8.10585   2.26071
C    -4.35525  -8.23082   3.53490
C    -3.96922  -7.29346   4.68548
C    -2.54712  -7.37649   5.27215
C    -1.31932  -7.02388   4.41457
C    -1.38727  -5.66489   3.62488
C     0.00264  -5.41553   3.00768
O     0.76235  -4.52523   3.32137
O     0.26929  -6.31961   2.07210
C     1.51336  -6.18068   1.36616
C    -1.76191  -4.54593   4.60263
O    -2.75733  -3.86041   4.51244
O    -0.89818  -4.46166   5.60831
C    -1.17148  -3.47668   6.61812
C    -2.39250  -5.84258   2.55458
C    -3.12973  -6.68182   1.99148
C    -4.04750  -5.51315   0.32484
C    -5.15929  -6.24821  -0.30147
C    -6.20276  -6.79061   0.46495
C    -7.25533  -7.45796  -0.16179
C    -7.27608  -7.59138  -1.55284
C    -6.23290  -7.06045  -2.31880
C    -5.17597  -6.39483  -1.69963
O    -2.86996  -5.43497  -0.36956
C    -2.06080  -4.48150   0.24928
O    -0.91054  -4.31983  -0.10251
C    -2.90731  -3.86345   1.25216
C    -2.62008  -2.57176   1.90334
C    -1.18839  -2.11483   1.93340
O    -3.51349  -1.86559   2.36408
N    -4.18280  -4.37154   1.04848
C    -5.30323  -4.15040   1.95439
H    -3.36781  -8.88325  -2.14589
H    -3.34371 -10.48000  -1.34769
H    -4.83937  -9.50896  -1.35214
H    -2.62014  -8.08500  -0.10862
H    -2.53129  -8.60063   2.47115
H    -5.40824  -8.04326   3.27420
H    -4.30084  -9.27989   3.86573
H    -4.18653  -6.25428   4.39695
H    -4.65929  -7.51263   5.51710
H    -2.53314  -6.72785   6.16420
H    -2.37399  -8.40005   5.64668
H    -1.10737  -7.80555   3.67478
H    -0.44188  -6.97436   5.07659
H     1.54515  -5.21128   0.85065
H     2.35929  -6.26157   2.06302
H     1.53654  -6.99999   0.63908
H    -1.19130  -2.47168   6.17352
H    -0.35539  -3.55714   7.34482
H    -2.13660  -3.68608   7.10093
H    -6.17588  -6.72125   1.55163
H    -8.05592  -7.88765   0.44372
H    -8.10035  -8.11684  -2.04024
H    -6.23988  -7.16834  -3.40557
H    -4.36091  -5.98281  -2.29547
H    -0.81947  -1.97251   0.90567
H    -1.13738  -1.16612   2.48281
H    -0.53380  -2.85783   2.40658
H    -5.21707  -4.82911   2.81764
H    -5.27045  -3.11540   2.29580
H    -6.24234  -4.34231   1.42418
