47
Generated by autodE on: 2022-06-23. E = -1272.876449 Ha
C    -4.19962   2.24783  -1.29079
N    -2.88968   1.87113  -0.79930
C    -2.53970   0.61641  -0.50689
O    -3.29115  -0.36388  -0.59589
C    -1.08207   0.42395  -0.05748
C    -0.99954  -0.22333   1.35207
O    -0.25295   0.23997   2.21747
N    -1.74916  -1.31668   1.52903
C    -1.57849  -2.17931   2.68172
O    -0.41560   1.68007  -0.01013
C     0.77437   1.69274  -0.79277
C     0.51001   2.39189  -2.06854
N     0.28774   2.94825  -3.06153
C     1.90890   2.47857  -0.06848
C     1.57923   3.09701   1.24735
O     2.98299   2.55152  -0.62596
C     1.13200   0.20945  -1.03881
C     1.96702  -0.39258   0.10714
C     1.64543  -1.84464   0.35117
C     2.42136  -2.64409   1.31039
N     3.51008  -2.04783   1.85576
O     2.10785  -3.80772   1.63874
C     0.58872  -2.45123  -0.25900
N    -0.30632  -1.82520  -1.06260
C    -1.27302  -2.57088  -1.85479
C    -0.28088  -0.39379  -1.15592
H    -4.64041   3.02834  -0.65279
H    -4.13564   2.63317  -2.32032
H    -4.85195   1.36689  -1.28060
H    -2.17158   2.58239  -0.69317
H    -2.36016  -1.59447   0.76373
H    -0.61200  -2.71033   2.63533
H    -2.38851  -2.91879   2.69722
H    -1.60801  -1.59717   3.61397
H     2.47919   3.55120   1.68040
H     0.80241   3.86473   1.09206
H     1.14180   2.34565   1.92081
H     1.65669   0.09060  -1.99394
H     1.80548   0.17103   1.03857
H     3.02928  -0.26402  -0.15354
H     4.05940  -2.56604   2.53247
H     3.80824  -1.11486   1.60190
H     0.41467  -3.51726  -0.10166
H    -2.27163  -2.12757  -1.75706
H    -1.30824  -3.60734  -1.49462
H    -0.99245  -2.58068  -2.92254
H    -0.70456  -0.10814  -2.12818
