20
Generated by autodE on: 2022-06-23. E = -457.715312 Ha
C    -3.04297  -0.55447  -0.73598
N    -1.81835   0.02285  -0.20676
C    -1.87237   1.23763   0.48808
C    -0.77759   1.84351   0.97440
C     0.61425   1.28256   0.81677
C     0.57344  -0.03219   0.05495
C     1.80249  -0.79070  -0.22612
N     2.95881  -0.23494   0.21612
O     1.81526  -1.88397  -0.82812
C    -0.60083  -0.55810  -0.39514
H    -3.77835  -0.71957   0.06767
H    -3.50023   0.10454  -1.49254
H    -2.81542  -1.51986  -1.20498
H    -2.87432   1.65381   0.60776
H    -0.90102   2.78786   1.50952
H     1.08528   1.14815   1.81207
H     1.26469   2.01949   0.30190
H     3.83126  -0.71729   0.03062
H     2.99143   0.66240   0.68289
H    -0.60017  -1.50267  -0.94133
