27
Generated by autodE on: 2022-06-23. E = -815.067582 Ha
C    -0.80316  -3.30456  -2.36729
N    -0.35290  -2.22114  -1.51497
C    -1.22416  -1.36437  -0.96376
O    -2.45177  -1.44574  -1.13591
C    -0.65435  -0.25680  -0.14176
O     0.63435  -0.16139  -0.18211
C     1.56535   0.68175   0.23621
C     1.30220   1.99084   0.69864
N     1.20353   3.11357   1.00024
C     2.95137   0.26025   0.01385
C     3.18581  -1.08397  -0.62024
O     3.86627   1.00731   0.35433
C    -1.44055   0.54216   0.83779
O    -0.85757   1.03168   1.81452
N    -2.75828   0.63429   0.61147
C    -3.64433   1.25532   1.57441
H    -1.34117  -2.91756  -3.24692
H    -1.48195  -3.98060  -1.82424
H     0.07174  -3.87208  -2.70470
H     0.63974  -2.10899  -1.33892
H     2.70401  -1.88261  -0.03508
H     2.74944  -1.10606  -1.63215
H     4.26590  -1.26556  -0.68139
H    -3.12573   0.04092  -0.13674
H    -3.78577   0.62283   2.46736
H    -3.23038   2.21894   1.90355
H    -4.62028   1.42504   1.10361
