30
Generated by autodE on: 2022-06-10. E = -3704.986108 Ha
C     2.96160   0.20873  -2.19673
C     2.55866  -0.22917  -0.82356
O     3.05384  -1.19538  -0.27116
C     1.48003   0.58660  -0.07040
C     2.13170   1.04002   1.24309
N     1.11908   1.79501  -0.80984
C    -0.14005   1.89370  -0.99123
C    -0.78800   3.05585  -1.66299
C    -0.95153   0.70994  -0.50837
Cl   -2.28320   1.24977   0.57265
C    -1.49038  -0.14799  -1.70861
C    -2.27563  -1.31608  -1.14146
C    -1.35597  -2.14155  -0.63069
C    -0.01397  -1.47286  -0.89138
O    -0.26214  -0.76495  -2.11717
C     0.14444  -0.25593   0.09165
Br   -0.17285  -0.87265   1.92789
H     2.07404   0.22454  -2.84742
H     3.34860   1.23839  -2.16303
H     3.72136  -0.47394  -2.59857
H     1.41505   1.60985   1.84983
H     2.98595   1.69113   1.00571
H     2.49269   0.17720   1.81437
H    -0.02964   3.77627  -1.99464
H    -1.37854   2.72225  -2.53148
H    -1.48540   3.55321  -0.97129
H    -1.94084   0.43885  -2.51528
H    -3.36139  -1.38792  -1.10686
H    -1.49754  -3.06806  -0.07722
H     0.86107  -2.12227  -0.96559
