17
Generated by autodE on: 2022-06-10. E = -364.149681 Ha
C     3.34886   0.74176  -0.01283
C     2.01123   0.19247  -0.07107
N     0.94103  -0.26730  -0.05641
C    -0.34727  -0.64760  -0.03601
C    -0.66460  -2.11997  -0.05378
C    -1.30506   0.41164   0.03241
C    -2.76533  -0.00175   0.10922
O    -0.99733   1.62895   0.05847
H     3.89855   0.33940   0.84913
H     3.27516   1.83309   0.09437
H     3.90709   0.52363  -0.93496
H     0.26363  -2.70997  -0.06302
H    -1.25014  -2.43810   0.82732
H    -1.24542  -2.40282  -0.94753
H    -3.04837  -0.65676  -0.72944
H    -3.39985   0.89581   0.10338
H    -2.95717  -0.56492   1.03846
