30
Generated by autodE on: 2022-06-10. E = -3704.880149 Ha. Imaginary frequency = -238.0 cm-1
C     2.74560   0.00506  -2.13636
C     2.81767   0.07775  -0.62923
O     3.57546  -0.66833   0.01061
C     1.99870   1.05822   0.06201
C     2.21454   1.34792   1.51679
N     1.19328   1.84328  -0.63575
C     0.15330   2.19185  -1.10639
C    -0.53985   3.20576  -1.89644
C    -1.22204   0.40404  -0.34239
Cl   -2.29215   1.35783   0.64140
C    -1.66356  -0.10988  -1.73388
C    -2.50630  -1.38417  -1.50089
C    -1.63477  -2.30285  -1.07069
C    -0.27019  -1.57378  -1.03767
O    -0.42295  -0.68947  -2.16421
C    -0.35708  -0.55399   0.11736
Br   -0.16068  -1.11348   1.90275
H     1.70652  -0.02478  -2.49014
H     3.22052   0.89976  -2.57304
H     3.28530  -0.88730  -2.48036
H     3.06728   2.03155   1.67685
H     1.31834   1.80060   1.96406
H     2.43684   0.40943   2.04170
H     0.03098   4.14619  -1.94713
H    -0.67951   2.80956  -2.91546
H    -1.53783   3.38981  -1.47252
H    -2.04522   0.63502  -2.43953
H    -3.58661  -1.45079  -1.62340
H    -1.80725  -3.32692  -0.74154
H     0.64221  -2.17563  -1.10559
