17
Generated by autodE on: 2022-06-02. E = -439.145383 Ha
C    -2.25556  -0.90887   0.36211
C    -0.91138  -0.47784  -0.07474
C    -0.24166   0.68396   0.09336
C    -0.66403   1.85336   0.75328
N    -1.00111   2.83176   1.29333
C     1.17523   0.42589  -0.50460
C     1.87191  -0.58666   0.42866
C     1.20277  -1.73052   0.25550
C     0.11474  -1.39557  -0.78647
O     0.80650  -0.42879  -1.59624
H    -2.84797  -1.25849  -0.50026
H    -2.80132  -0.10477   0.87507
H    -2.16251  -1.77160   1.04556
H     1.74006   1.30606  -0.82696
H     2.68857  -0.35087   1.10988
H     1.31470  -2.69064   0.75752
H    -0.30131  -2.21885  -1.37682
