13
Generated by autodE on: 2022-06-19. E = -381.789693 Ha
C     2.19959   0.69437   0.50689
O     1.88535  -0.14032  -0.40876
C     0.74395  -0.66933  -0.86499
C    -0.56457  -0.39221  -0.37621
O    -1.58942  -0.90465  -0.83114
O    -0.59867   0.49876   0.65179
C    -1.88971   0.81100   1.18058
H     1.43740   1.15523   1.13498
H     3.26976   0.89123   0.59065
H     0.90164  -1.36546  -1.68434
H    -2.37887  -0.08979   1.58065
H    -1.72076   1.53401   1.98788
H    -2.53395   1.25629   0.40759
