22
Generated by autodE on: 2022-07-27. E = -404.725935 Ha
C     1.70092  -0.77091   0.86655
C     1.42199   0.51835   0.10964
O     2.32444   1.41069   0.14175
C     0.26409   0.65870  -0.67967
C     0.12714   1.76112  -1.68822
N    -0.78016  -0.27482  -0.70031
C    -1.43482  -0.86403   0.27277
C    -1.25898  -0.47209   1.69316
C    -2.41178  -1.93471  -0.06956
H     1.07740  -1.62311   0.56392
H     1.57831  -0.62283   1.95226
H     2.75889  -1.02419   0.69559
H     1.10567   2.22358  -1.87630
H    -0.26798   1.37613  -2.64748
H    -0.56399   2.56370  -1.36635
H    -1.12602  -0.49870  -1.64060
H    -0.78847   0.51875   1.77477
H    -2.24430  -0.47371   2.18557
H    -0.62871  -1.19085   2.24221
H    -2.05698  -2.90320   0.32474
H    -3.38056  -1.73223   0.41494
H    -2.55483  -2.03643  -1.15519
