37
Generated by autodE on: 2022-06-17. E = -804.924629 Ha
C     3.43023   1.98927  -1.44144
N     2.24067   1.44358  -0.82512
C     2.03715   0.13378  -0.66053
O     2.86057  -0.74130  -0.96094
C     0.66038  -0.22664  -0.05729
C     0.95021  -1.02736   1.24269
C     1.35239  -2.46763   1.14357
O     0.84616  -0.45929   2.31640
N    -0.13879   0.96238   0.24963
C    -1.55118   0.67816  -0.02470
C    -2.42115   0.97279   1.18670
C    -3.90988   0.84840   1.02807
O    -1.91626   1.29225   2.25285
C    -1.61687  -0.80858  -0.48100
C    -2.77103  -1.16836  -1.40659
C    -0.20625  -1.02169  -1.07326
C    -0.05709  -0.51806  -2.50968
H     3.35370   2.00236  -2.54217
H     3.58616   3.01831  -1.09150
H     4.30355   1.38167  -1.16757
H     1.43691   2.02824  -0.59748
H     2.06319  -2.61564   0.32039
H     1.77362  -2.80367   2.10022
H     0.45525  -3.06889   0.91936
H    -0.04104   1.16831   1.24713
H    -1.93222   1.31426  -0.84505
H    -4.24377   1.17153   0.03233
H    -4.41794   1.42197   1.81501
H    -4.18549  -0.21390   1.14275
H    -1.68235  -1.43317   0.42661
H    -2.83672  -0.47579  -2.25935
H    -3.73486  -1.14357  -0.88000
H    -2.63923  -2.18713  -1.80392
H     0.05522  -2.08732  -1.05419
H    -0.30689   0.54947  -2.60559
H    -0.71622  -1.08238  -3.18461
H     0.97298  -0.66218  -2.86604
