12
Generated by autodE on: 2022-06-17. E = -157.299004 Ha
C     1.59249  -0.52081  -0.12901
C     0.66175   0.64361   0.03344
C    -0.67912   0.61885   0.09578
C    -1.57735  -0.57924   0.01639
H     2.29438  -0.58283   0.72147
H     1.06779  -1.48383  -0.20584
H     2.21667  -0.40059  -1.03211
H     1.15029   1.62336   0.11014
H    -1.19422   1.58019   0.21809
H    -1.02630  -1.52336  -0.10039
H    -2.20317  -0.66048   0.92270
H    -2.27873  -0.48773  -0.83185
