25
Generated by autodE on: 2022-06-17. E = -647.572160 Ha
C     3.24467  -2.14929   1.22043
N     2.51546  -1.06267   0.60750
C     1.16915  -0.99631   0.58240
O     0.43671  -1.85007   1.10875
C     0.61326   0.18060  -0.11959
N    -0.73501   0.34919  -0.19311
C    -1.79519  -0.31081   0.23545
C    -3.08441   0.29654  -0.10494
C    -4.31458  -0.41951   0.36612
O    -3.12439   1.35019  -0.75109
C     1.43995   1.18984  -0.75972
C     0.78455   2.36304  -1.46129
O     2.67310   1.10439  -0.74679
H     4.08364  -1.75786   1.81506
H     3.65496  -2.84384   0.46722
H     2.57505  -2.71342   1.88015
H     3.00632  -0.31569   0.11365
H    -1.04420   1.19316  -0.70284
H    -1.68293  -1.23052   0.79622
H    -4.34194  -1.43376  -0.06583
H    -5.21570   0.13556   0.07605
H    -4.28085  -0.54114   1.46132
H     1.57625   3.01805  -1.84421
H     0.14327   2.94479  -0.77969
H     0.16377   2.02765  -2.30826
