49
Generated by autodE on: 2022-06-01. E = -1315.772728 Ha
C    -4.46083   1.88203   1.49850
N    -3.19819   1.62417   0.83110
C    -2.22861   0.91157   1.41662
O    -2.31146   0.42829   2.54642
C    -0.98525   0.68651   0.55674
N     0.22081   0.37393   1.27619
C     1.12046   0.49002   0.10384
C     2.59231   0.41862   0.38958
C     3.51955   0.71885  -0.62081
C     4.89001   0.61822  -0.37294
C     5.35150   0.21917   0.88566
C     4.43261  -0.08023   1.89470
C     3.06008   0.01661   1.64779
C     0.63294   1.83512  -0.48874
O     1.22517   2.70243  -1.07297
O    -0.68025   1.93022  -0.15080
C     0.51709  -0.67765  -0.78868
C     1.17816  -2.00612  -0.44807
C     0.52115  -0.40637  -2.32920
C    -0.18413  -1.57573  -3.00548
C    -1.48649  -1.39940  -2.75166
C    -1.56569  -0.12693  -1.91031
O    -0.46530   0.62599  -2.44741
C    -1.03209  -0.49401  -0.48424
C    -1.82185  -1.64907   0.13867
O    -2.87778  -2.04038  -0.37246
N    -1.33601  -2.14895   1.28585
C    -2.11777  -3.03824   2.12100
H    -4.31101   2.46379   2.42145
H    -5.10888   2.44956   0.82059
H    -4.96041   0.93827   1.76598
H    -3.02943   2.01710  -0.08998
H     0.42053   1.08107   1.98954
H     3.16997   1.03598  -1.60334
H     5.60082   0.85385  -1.16837
H     6.42412   0.14206   1.07841
H     4.78250  -0.39403   2.88091
H     2.35129  -0.22866   2.43942
H     1.31113  -2.14309   0.63165
H     2.17307  -2.04762  -0.91607
H     0.58395  -2.84574  -0.83175
H     1.48640  -0.08883  -2.73811
H     0.30824  -2.40155  -3.51738
H    -2.32793  -2.04053  -3.00376
H    -2.49521   0.45087  -1.92949
H    -0.56936  -1.63005   1.71132
H    -1.46515  -3.48379   2.88266
H    -2.93573  -2.49617   2.62620
H    -2.55796  -3.84172   1.51485
