23
Generated by autodE on: 2022-06-01. E = -554.982573 Ha
C     3.66837  -0.35006  -0.81835
N     2.33877  -0.46031  -0.25491
C     1.38376   0.46426  -0.51117
O     1.62404   1.44754  -1.23428
C     0.06960   0.22570   0.10856
C    -1.10421   0.84346  -0.14220
C    -1.50133   1.92928  -1.06924
C    -2.13605   0.07485   0.72231
C    -2.30062  -1.32133   0.08390
C    -1.14384  -1.94402   0.33033
C    -0.29755  -0.91073   1.10605
O    -1.32393  -0.24843   1.86510
H     3.64201  -0.36710  -1.92011
H     4.15681   0.58846  -0.51083
H     4.27433  -1.19436  -0.46763
H     2.12529  -1.25822   0.33177
H    -1.95008   2.76758  -0.50836
H    -2.28772   1.56111  -1.75235
H    -0.65366   2.30028  -1.65579
H    -3.04585   0.62144   0.99473
H    -3.16653  -1.65270  -0.48810
H    -0.80038  -2.92966   0.01776
H     0.50199  -1.29391   1.74956
