49
Generated by autodE on: 2022-06-01. E = -1315.723873 Ha. Imaginary frequency = -340.5 cm-1
C    -4.64906   1.33680   1.30102
N    -3.28655   1.44051   0.81347
C    -2.27970   0.78493   1.40893
O    -2.39844   0.09882   2.42939
C    -0.96141   0.87404   0.71996
N     0.20851   0.59949   1.37047
C     1.22247   0.94774   0.49751
C     2.63732   0.72930   0.76490
C     3.61253   1.18575  -0.14470
C     4.96469   0.93467   0.08689
C     5.36989   0.22569   1.22276
C     4.40825  -0.23109   2.13002
C     3.05394   0.01517   1.90537
C     0.65137   1.93623  -0.39597
O     1.11618   2.68813  -1.22837
O    -0.72376   1.91604  -0.12675
C     0.49531  -0.70003  -1.07747
C     1.57126  -1.68030  -0.73995
C     0.40090  -0.21658  -2.54069
C    -0.16863  -1.41826  -3.32844
C    -1.45152  -1.49335  -2.95515
C    -1.63941  -0.33765  -1.94815
O    -0.74702   0.63742  -2.49587
C    -0.86919  -0.74376  -0.65785
C    -1.36249  -1.78706   0.27413
O    -0.67279  -2.19241   1.22691
N    -2.61809  -2.24418   0.07723
C    -3.25414  -3.12794   1.03586
H    -5.28145   2.03149   0.73593
H    -4.70027   1.59379   2.36924
H    -5.03980   0.31375   1.17538
H    -3.09953   1.94117  -0.05022
H     0.24158  -0.25904   1.92548
H     3.30143   1.73610  -1.03178
H     5.70838   1.29533  -0.62751
H     6.42981   0.03024   1.40042
H     4.71379  -0.78426   3.02106
H     2.31980  -0.34839   2.62678
H     2.55357  -1.32437  -1.08326
H     1.36069  -2.63007  -1.26686
H     1.62510  -1.90293   0.33028
H     1.28059   0.29474  -2.94719
H     0.40505  -2.07507  -3.98139
H    -2.21086  -2.22716  -3.22304
H    -2.64948   0.06592  -1.81438
H    -3.18947  -1.84444  -0.65839
H    -2.66045  -4.04226   1.18377
H    -3.37090  -2.63274   2.01368
H    -4.24515  -3.40726   0.65763
