41
Generated by autodE on: 2022-06-21. E = -1157.018252 Ha
C     3.55162   2.74342   0.34076
O     2.66230   1.71169   0.80825
C     2.38265   0.72784  -0.03366
O     2.83234   0.61864  -1.15326
C     1.40269  -0.26676   0.58901
C     1.98097  -0.69388   1.97150
C     3.17752  -1.59930   1.94362
O     1.46588  -0.31804   3.00463
N     1.27703  -1.44034  -0.28216
C    -0.12411  -1.82101  -0.42194
C    -0.30444  -3.26086  -0.13849
N    -0.42670  -4.38439   0.11920
C    -0.67076  -1.54427  -1.76497
N    -1.09458  -1.31526  -2.81898
C    -0.87408  -0.93525   0.67880
C    -0.01171   0.33144   0.72484
C    -0.37244   1.33334  -0.37931
C    -1.86505   1.48738  -0.50005
C    -2.36565   2.72472  -1.11836
N    -3.69706   2.99350  -1.06791
O    -1.58380   3.50563  -1.69327
C    -2.68267   0.46116  -0.13718
N    -2.26702  -0.70211   0.44768
C    -3.17557  -1.83040   0.58308
H     3.66073   3.44429   1.17537
H     3.11323   3.24845  -0.53114
H     4.52433   2.30914   0.07142
H     3.84778  -1.36918   1.10243
H     3.71416  -1.53132   2.89890
H     2.82898  -2.63545   1.80574
H     1.74237  -1.29261  -1.17723
H    -0.75626  -1.48886   1.62136
H    -0.12492   0.80232   1.70770
H     0.05582   1.02324  -1.34857
H     0.09272   2.30171  -0.14772
H    -4.32216   2.50958  -0.43546
H    -4.01500   3.86895  -1.46961
H    -3.76294   0.50631  -0.28861
H    -3.14527  -2.49666  -0.29699
H    -4.20364  -1.46262   0.70148
H    -2.90681  -2.41769   1.47337
