20
Generated by autodE on: 2022-06-21. E = -457.715319 Ha
C     3.06745   0.78291   0.27237
N     1.82715   0.04431   0.10116
C     1.85087  -1.35603   0.11419
C     0.73646  -2.10046   0.03690
C    -0.64611  -1.50631  -0.07377
C    -0.57495   0.01175  -0.04789
C    -1.79173   0.83636  -0.11946
N    -2.96511   0.16159  -0.21471
O    -1.77978   2.08390  -0.09458
C     0.61709   0.66708   0.03738
H     3.81308   0.46734  -0.47394
H     2.87348   1.85464   0.13965
H     3.49528   0.62484   1.27679
H     2.84631  -1.79745   0.19053
H     0.83646  -3.18823   0.04825
H    -1.29085  -1.88615   0.74502
H    -1.13995  -1.86431  -1.00083
H    -3.01604  -0.84850  -0.24787
H    -3.82710   0.69291  -0.27039
H     0.63846   1.75787   0.05398
