41
Generated by autodE on: 2022-06-21. E = -1156.963571 Ha. Imaginary frequency = -308.6 cm-1
C     2.45670   2.68672  -1.24605
O     2.09208   1.60305  -0.37162
C     1.42639   0.58823  -0.89684
O     1.08644   0.52752  -2.06510
C     1.12286  -0.52006   0.08626
C     2.17940  -0.87003   1.11773
C     2.81194   0.19563   1.96913
O     2.51169  -2.03899   1.23385
N     0.58074  -1.57921  -0.60777
C    -0.25222  -2.51768  -0.01079
C    -0.03383  -3.08559   1.26630
N     0.01001  -3.54539   2.34048
C    -1.14152  -3.22629  -0.85646
N    -1.88866  -3.79812  -1.54852
C    -1.54280  -0.65042   1.03122
C    -0.38964   0.08330   1.43158
C    -0.49490   1.58960   1.28842
C    -1.14279   1.92317  -0.03291
C    -0.83904   3.23602  -0.64462
N    -1.12131   3.40381  -1.95916
O    -0.34757   4.14516   0.04149
C    -2.03622   1.05440  -0.56259
N    -2.34842  -0.14859   0.05582
C    -3.53027  -0.87926  -0.39833
H     2.75256   3.51290  -0.59121
H     1.60860   2.97676  -1.87709
H     3.29982   2.37527  -1.87922
H     2.14255   1.03205   2.19680
H     3.17491  -0.27507   2.89281
H     3.67765   0.60573   1.42517
H     0.28802  -1.31253  -1.54977
H    -1.93961  -1.47669   1.61464
H     0.04756  -0.27443   2.36587
H     0.48451   2.07581   1.36592
H    -1.09659   1.99215   2.12758
H    -1.27853   2.60865  -2.56750
H    -0.86553   4.28657  -2.39030
H    -2.60102   1.25382  -1.47476
H    -3.44030  -1.11766  -1.46719
H    -4.43383  -0.27135  -0.24276
H    -3.62035  -1.81180   0.16896
