12
Generated by autodE on: 2022-06-19. E = -157.299004 Ha
C    -1.61179  -0.47471   0.01662
C    -0.63615   0.65967   0.11603
C     0.70297   0.59792   0.04269
C     1.55359  -0.62108  -0.15484
H    -1.12511  -1.44938  -0.13111
H    -2.31422  -0.31500  -0.82054
H    -2.23237  -0.53892   0.92793
H    -1.08613   1.64953   0.26496
H     1.25544   1.54150   0.13695
H     2.17079  -0.52518  -1.06568
H     2.26255  -0.74405   0.68299
H     0.96628  -1.54655  -0.23980
