31
Generated by autodE on: 2022-06-19. E = -801.281363 Ha
C    -3.63564  -3.11693   1.13545
N    -3.09113  -1.85042   0.70197
C    -1.77212  -1.60725   0.57256
O    -0.89166  -2.46857   0.81551
C    -1.35647  -0.26807   0.12686
N     0.02124  -0.18806   0.04934
C     0.88300   0.73640  -0.28153
C     2.31816   0.52879  -0.25898
C     2.93261  -0.67528   0.15081
C     4.31966  -0.79492   0.14088
C     5.12244   0.27651  -0.27353
C     4.52579   1.47471  -0.67879
C     3.13751   1.60111  -0.67150
C    -2.25958   0.80156  -0.17190
O    -3.49396   0.73252  -0.10094
O    -1.65039   1.94894  -0.55486
C    -2.50011   3.05703  -0.86406
H    -4.22289  -3.00332   2.06147
H    -4.29489  -3.55232   0.36665
H    -2.81476  -3.81756   1.32761
H    -3.70866  -1.07021   0.47801
H     0.38467  -1.11569   0.33441
H     0.49607   1.70546  -0.58791
H     2.33315  -1.52624   0.48301
H     4.78174  -1.73165   0.46043
H     6.21000   0.17514  -0.27827
H     5.14524   2.31440  -1.00176
H     2.66848   2.53588  -0.98769
H    -3.10298   3.34458   0.00992
H    -1.83169   3.87965  -1.14550
H    -3.17124   2.81483  -1.70127
