31
Generated by autodE on: 2022-07-27. E = -801.279273 Ha
C    -3.51507  -1.30576   2.84798
N    -3.00735  -0.57868   1.70623
C    -1.69507  -0.63282   1.37021
O    -0.90227  -1.32101   2.05369
C    -1.23876   0.12350   0.20660
N     0.09748   0.09498  -0.16558
C     1.15921  -0.49976   0.31199
C     2.48005  -0.36522  -0.27153
C     3.53858  -1.04989   0.36311
C     4.83879  -0.96898  -0.13301
C     5.10732  -0.20391  -1.27247
C     4.06486   0.47944  -1.91307
C     2.76403   0.40322  -1.42257
C    -1.99531   0.96187  -0.69200
O    -1.49084   1.55689  -1.65101
O    -3.31568   1.06274  -0.42103
C    -4.09557   1.88764  -1.29328
H    -3.02616  -0.99102   3.78498
H    -3.36029  -2.39284   2.74471
H    -4.59210  -1.11506   2.93683
H    -3.63110  -0.01679   1.13774
H     0.22046   0.68658  -0.99914
H     1.01850  -1.12003   1.19371
H     3.32547  -1.64623   1.25336
H     5.64626  -1.50458   0.37116
H     6.12532  -0.13878  -1.66305
H     4.27044   1.07685  -2.80410
H     1.97285   0.94569  -1.94597
H    -4.05521   1.51049  -2.32545
H    -3.73581   2.92659  -1.27147
H    -5.12314   1.83727  -0.91425
