38
Generated by autodE on: 2022-10-21. E = -1719.416082 Ha
C    -0.94885   1.68207   2.41858
O    -0.37908   0.56686   1.72614
C    -0.00021   0.50160   0.38562
C    -0.35693   1.81474  -0.38197
F     0.32208   2.85262   0.11074
F    -1.66700   2.07889  -0.24429
F    -0.11664   1.76955  -1.69220
C     1.52222   0.03709   0.37995
C     2.43585   0.80862   1.39060
C     3.85733   0.32414   1.49098
O     2.04286   1.77761   1.99345
C     2.27796   0.21694  -0.97893
C     2.84441  -0.98573  -1.66732
O     2.48388   1.35313  -1.35555
N     1.43980  -1.37682   0.73885
C     1.34510  -1.76622   2.14723
O     0.28018  -1.85480   0.03127
C    -0.68335  -0.83682  -0.17919
C    -1.98803  -1.19886   0.61931
F    -1.70499  -1.68077   1.82631
F    -2.79408  -0.13936   0.75054
F    -2.69245  -2.14836  -0.01518
C    -0.98605  -0.92802  -1.70768
F    -1.27032  -2.18336  -2.05746
F     0.07240  -0.56742  -2.44195
F    -2.02414  -0.15174  -2.04008
H    -0.32527   2.57882   2.33260
H    -1.97215   1.88910   2.07997
H    -0.97504   1.36497   3.46889
H     4.24172   0.54109   2.49636
H     3.97349  -0.73853   1.24687
H     4.45332   0.90471   0.76637
H     3.14603  -0.70271  -2.68404
H     3.73897  -1.30357  -1.10588
H     2.15013  -1.83276  -1.67938
H     2.31075  -1.55159   2.62354
H     1.20369  -2.85477   2.17233
H     0.54193  -1.27194   2.70585
