19
Generated by autodE on: 2022-10-26. E = -514.654412 Ha
C     0.26155   2.32107   0.95341
C     0.59205   0.86165   1.01484
O     1.30123   0.37203   1.87501
C    -0.04351  -0.03153  -0.03252
C     0.45280   0.14030  -1.41370
C    -0.14495  -0.60884  -2.56532
O     1.38276   0.93181  -1.57416
N    -0.91190  -0.96212   0.34207
C    -1.32908  -1.07447   1.76387
O    -1.42972  -1.81110  -0.42666
H     0.33199   2.70290  -0.07392
H     0.91440   2.88847   1.63000
H    -0.78905   2.43671   1.27425
H    -1.24047  -0.50985  -2.57464
H     0.06734  -1.68438  -2.46320
H     0.29271  -0.22352  -3.49593
H    -0.61040  -1.72164   2.28266
H    -2.31983  -1.53850   1.74922
H    -1.36824  -0.09151   2.24465
