19
Generated by autodE on: 2022-10-21. E = -1204.765365 Ha
C    -3.11739   1.05250  -0.66968
O    -1.84998   0.39058  -0.84988
C    -0.87029   0.30363   0.03124
C     0.30522  -0.27542  -0.34424
C     0.40558  -0.98611  -1.67591
F     0.74916  -0.16143  -2.68439
F    -0.73588  -1.58850  -2.03314
F     1.34087  -1.95625  -1.62634
C     1.60441  -0.14294   0.41413
F     2.64278  -0.12668  -0.44495
F     1.83523  -1.14335   1.28151
F     1.68056   1.01002   1.10287
C    -1.12006   0.82813   1.45851
F    -2.38207   0.57513   1.82838
F    -0.33652   0.22686   2.35552
F    -0.92469   2.14911   1.53766
H    -3.50154   1.18999  -1.68699
H    -2.98772   2.03123  -0.19000
H    -3.80361   0.42031  -0.09310
