52
Generated by autodE on: 2022-06-23. E = -1151.614214 Ha
C     4.52828   0.15553  -1.19535
C     3.89393  -0.55812  -0.24284
C     4.48234  -1.81904   0.33109
C     2.58312  -0.10723   0.23812
C     1.82235  -0.74383   1.14700
C     0.45431  -0.30515   1.60520
C     0.08863   1.06960   1.11733
C     0.69493   2.30459   1.72673
O     1.32966   2.23786   2.78606
N     0.50206   3.43509   1.03281
C     0.99019   4.71843   1.49209
N    -0.73897   1.12662   0.14812
C    -1.10108  -0.24443  -0.26078
C    -0.26344  -0.61480  -1.50412
O    -0.22022  -1.72502  -1.99129
O     0.38305   0.42615  -2.02403
C     1.21281   0.16640  -3.16689
C    -2.57722  -0.32660  -0.65883
C    -3.44097   0.74161  -0.37977
C    -4.80380   0.65503  -0.67789
C    -5.32576  -0.50222  -1.26112
C    -4.47068  -1.57131  -1.54512
C    -3.10845  -1.48541  -1.24775
C    -0.73884  -1.13721   1.01989
C    -1.90068  -1.07105   2.02330
C    -0.39989  -2.60349   0.76930
H     5.50158  -0.15260  -1.58743
H     4.08451   1.06691  -1.60747
H     4.60806  -1.73658   1.42351
H     5.46184  -2.04081  -0.11541
H     3.81747  -2.68110   0.15530
H     2.21713   0.81692  -0.21964
H     2.18236  -1.66967   1.60348
H     0.43432  -0.34478   2.70535
H    -0.06748   3.37194   0.19396
H     0.88569   5.45239   0.68398
H     2.05101   4.64701   1.77508
H     0.42874   5.07679   2.37114
H     1.98704  -0.57163  -2.91561
H     1.67382   1.12613  -3.42613
H     0.60534  -0.20496  -4.00456
H    -3.04195   1.64639   0.07718
H    -5.45917   1.49945  -0.45090
H    -6.39097  -0.57086  -1.49424
H    -4.86444  -2.48201  -2.00279
H    -2.45457  -2.32398  -1.48224
H    -1.58635  -1.54247   2.96657
H    -2.78235  -1.61048   1.65055
H    -2.20208  -0.03669   2.24444
H    -1.26432  -3.13722   0.34829
H    -0.15299  -3.07913   1.73179
H     0.45196  -2.74104   0.09444
