23
Generated by autodE on: 2022-06-23. E = -351.521384 Ha
C    -3.63276  -0.46193  -0.94302
C    -2.52570   0.18931  -0.52333
C    -2.56942   1.64959  -0.15219
C    -1.25383  -0.52354  -0.42175
C    -0.07631   0.01343  -0.01432
C     1.15780  -0.74073   0.06912
C     2.37188  -0.28082   0.46434
C     3.56499  -1.19359   0.50047
C     2.64665   1.13293   0.89220
H    -4.59687   0.04708  -1.02830
H    -3.59803  -1.52233  -1.21143
H    -1.87863   2.23953  -0.77730
H    -3.58147   2.06092  -0.27315
H    -2.25570   1.80343   0.89371
H    -1.27486  -1.58326  -0.70325
H    -0.04742   1.06910   0.26865
H     1.08752  -1.79624  -0.22048
H     3.31621  -2.21609   0.18051
H     3.99133  -1.24007   1.51877
H     4.37150  -0.81007  -0.15013
H     3.04254   1.14973   1.92310
H     1.76561   1.78637   0.85392
H     3.43229   1.57809   0.25641
