52
Generated by autodE on: 2022-06-23. E = -1151.532966 Ha. Imaginary frequency = -352.2 cm-1
C     4.68185   1.84844   1.14162
C     3.85071   0.92780   0.60696
C     4.26141   0.08507  -0.57268
C     2.50507   0.75746   1.15225
C     1.56592  -0.08490   0.66499
C     0.19396  -0.14868   1.16860
C    -0.62663   1.54844   0.13679
C     0.10421   2.79254   0.47152
O    -0.10034   3.35388   1.55049
N     1.02514   3.15193  -0.43471
C     2.01428   4.17945  -0.16450
N    -1.48473   1.19697  -0.64063
C    -1.97557   0.04554  -1.14955
C    -1.10744  -0.62006  -2.11780
O    -1.36081  -1.66269  -2.71075
O     0.06944   0.02590  -2.28939
C     1.04238  -0.61707  -3.11474
C    -3.38177  -0.27854  -0.91962
C    -4.17119   0.59550  -0.13745
C    -5.49441   0.28855   0.17144
C    -6.07275  -0.90014  -0.28848
C    -5.30469  -1.77290  -1.06500
C    -3.97841  -1.47271  -1.38120
C    -0.68860  -1.20492   0.89897
C    -1.93444  -1.31577   1.72698
C    -0.29112  -2.44283   0.15047
H     5.68745   2.01002   0.74354
H     4.37188   2.46330   1.99200
H     3.59544   0.26164  -1.43392
H     5.29271   0.30639  -0.88135
H     4.19145  -0.98999  -0.33821
H     2.24416   1.40316   1.99892
H     1.80824  -0.71465  -0.19312
H    -0.00031   0.42016   2.08518
H     1.12128   2.57917  -1.26930
H     2.23592   4.20565   0.91107
H     2.93363   3.94621  -0.71604
H     1.65939   5.17716  -0.47034
H     1.91091   0.05182  -3.13298
H     0.65711  -0.76189  -4.13477
H     1.32941  -1.59211  -2.69434
H    -3.73765   1.52827   0.22771
H    -6.08010   0.98530   0.77622
H    -7.11022  -1.14095  -0.04585
H    -5.74139  -2.70493  -1.43256
H    -3.39427  -2.16232  -1.98505
H    -1.72065  -1.89215   2.64760
H    -2.31350  -0.32926   2.03354
H    -2.73534  -1.85008   1.19517
H    -1.13633  -2.86298  -0.41447
H     0.02002  -3.21782   0.87710
H     0.54433  -2.28900  -0.54355
