61
Generated by autodE on: 2022-06-30. E = -1602.273973 Ha
C    -3.39941  -0.73478  -7.98760
N    -2.66842  -1.56570  -7.04974
C    -2.37296  -1.13865  -5.82153
O    -2.62849   0.00830  -5.42768
C    -1.59258  -2.11468  -4.89288
C    -2.06917  -3.57029  -5.01688
O    -2.28056  -4.13101  -6.07508
O    -2.11866  -4.18030  -3.84171
C    -2.49268  -5.56699  -3.83270
C    -0.12851  -2.12791  -5.42316
C     0.61614  -0.78343  -5.36951
C     1.76734  -0.75807  -4.36735
C     1.40942  -0.56096  -2.90116
C     0.49726  -1.64369  -2.18961
C     0.86802  -3.03014  -2.54425
N     1.16814  -4.12265  -2.78729
C     0.88019  -1.54201  -0.76084
N     1.30261  -1.45489   0.31406
C    -1.00626  -1.42559  -2.39769
C    -1.80400  -1.63126  -3.47307
C    -3.17651  -1.27317  -3.01746
C    -4.44415  -1.48449  -3.80234
C    -5.56414  -0.52324  -3.57157
O    -4.51656  -2.42853  -4.57460
N    -3.23948  -0.83147  -1.81152
C    -1.87969  -0.89258  -1.26306
C    -2.03400  -1.94633  -0.12593
C    -3.00630  -1.64718   0.97932
O    -1.44564  -3.00619  -0.19959
C    -1.44494   0.50865  -0.81678
C    -1.48910   1.53560  -1.77441
C    -1.08776   2.82937  -1.44302
C    -0.63664   3.11501  -0.14921
C    -0.58880   2.09731   0.80497
C    -0.99080   0.79876   0.47403
H    -3.43163  -1.24158  -8.95969
H    -2.90484   0.23987  -8.10881
H    -4.43174  -0.55479  -7.64476
H    -2.52633  -2.55633  -7.24288
H    -2.45505  -5.87684  -2.78255
H    -1.78557  -6.15637  -4.43289
H    -3.51001  -5.68404  -4.23204
H     0.43198  -2.90584  -4.89245
H    -0.19360  -2.47946  -6.46038
H     1.03210  -0.58433  -6.36806
H    -0.07869   0.04511  -5.16161
H     2.43441   0.08361  -4.61366
H     2.37720  -1.67047  -4.48129
H     2.34588  -0.52226  -2.32823
H     0.89172   0.39625  -2.74652
H    -5.76807  -0.42203  -2.49593
H    -5.24674   0.46847  -3.93518
H    -6.46082  -0.85130  -4.11208
H    -2.52977  -1.87597   1.94432
H    -3.37532  -0.61651   0.97014
H    -3.86074  -2.33371   0.86134
H    -1.82975   1.31960  -2.78936
H    -1.12541   3.61715  -2.19879
H    -0.32092   4.12783   0.11126
H    -0.23354   2.30726   1.81629
H    -0.92513   0.01838   1.23135
