26
Generated by autodE on: 2022-06-30. E = -669.357274 Ha
C     4.49526   0.30971  -0.36909
C     3.22054   1.09591  -0.48618
O     3.15580   2.27818  -0.82525
C     2.02318   0.39261  -0.15919
N     1.00122  -0.16660   0.02111
C    -0.15355  -0.76317   0.22549
C    -0.06683  -2.19088   0.57823
C     1.31755  -2.79550   0.65461
O    -1.06522  -2.87547   0.80199
C    -1.37345   0.05188   0.07469
C    -1.27042   1.40938  -0.30563
C    -2.40831   2.20004  -0.45362
C    -3.68025   1.66238  -0.22806
C    -3.79520   0.32148   0.14811
C    -2.66138  -0.47897   0.29921
H     4.31482  -0.75086  -0.14345
H     5.05411   0.40259  -1.31347
H     5.10820   0.75424   0.43212
H     1.22582  -3.85488   0.92434
H     1.93376  -2.27725   1.40683
H     1.84028  -2.70618  -0.31126
H    -0.29165   1.85635  -0.48988
H    -2.29880   3.24628  -0.74896
H    -4.57132   2.28333  -0.34492
H    -4.78141  -0.11357   0.32809
H    -2.76264  -1.52032   0.59181
