61
Generated by autodE on: 2022-06-30. E = -1602.159491 Ha. Imaginary frequency = -284.6 cm-1
C    -3.55260  -0.45093  -7.68274
N    -2.88262  -1.41351  -6.82949
C    -2.20985  -1.03825  -5.73799
O    -2.05621   0.14416  -5.41031
C    -1.54269  -2.16419  -4.89875
C    -2.35788  -3.46495  -4.84683
O    -2.88263  -3.97446  -5.81831
O    -2.34137  -4.02341  -3.64696
C    -3.04238  -5.26859  -3.48654
C    -0.19441  -2.58962  -5.58489
C     0.91270  -1.52638  -5.62151
C     1.99433  -1.61401  -4.52597
C     1.87364  -0.71127  -3.29814
C     0.90145  -1.17748  -2.14907
C     1.31088  -2.50821  -1.64741
N     1.62262  -3.56815  -1.29729
C     1.10174  -0.19592  -1.05540
N     1.37069   0.60994  -0.26883
C    -0.49083  -1.29455  -2.64305
C    -1.25629  -1.63511  -3.55150
C    -3.36380  -1.22119  -2.80485
C    -4.60344  -1.43205  -3.57914
C    -5.27762  -0.17037  -4.02827
O    -4.97083  -2.56012  -3.86327
N    -3.10379  -0.89348  -1.67023
C    -2.19923  -0.66512  -0.74863
C    -1.69251  -1.83667   0.01894
C    -2.28227  -3.18616  -0.29164
O    -0.78961  -1.69443   0.83735
C    -1.88672   0.74175  -0.41782
C    -1.80617   1.68572  -1.45862
C    -1.48709   3.01334  -1.18054
C    -1.25591   3.41858   0.13949
C    -1.35121   2.48816   1.17846
C    -1.66415   1.15532   0.90535
H    -3.84529  -0.94660  -8.61665
H    -2.88165   0.38771  -7.91644
H    -4.45650  -0.04340  -7.19994
H    -3.02983  -2.41277  -6.96659
H    -2.90847  -5.55004  -2.43621
H    -2.61367  -6.03332  -4.14877
H    -4.10732  -5.12744  -3.71298
H     0.16905  -3.48476  -5.05633
H    -0.45574  -2.90488  -6.60456
H     1.42585  -1.65249  -6.58659
H     0.47784  -0.51449  -5.64619
H     2.95084  -1.32304  -4.98693
H     2.12910  -2.66322  -4.21248
H     2.86333  -0.60583  -2.82953
H     1.53477   0.29497  -3.58634
H    -5.63835   0.38244  -3.14521
H    -4.54979   0.47485  -4.54439
H    -6.11524  -0.41825  -4.69341
H    -1.84542  -3.93027   0.38545
H    -3.37766  -3.17333  -0.18557
H    -2.05868  -3.46145  -1.33287
H    -1.96692   1.36744  -2.49104
H    -1.41198   3.73497  -1.99722
H    -1.00297   4.45897   0.35659
H    -1.17879   2.80101   2.21086
H    -1.72793   0.43338   1.71848
