23
Generated by autodE on: 2022-06-14. E = -517.879554 Ha
C    -0.84975   2.75892  -0.15858
N    -1.42204   1.59160  -0.11397
C    -0.95513   0.30043  -0.01547
C    -2.02884  -0.64310   0.05432
C    -1.74356  -2.12564   0.10630
O    -3.22683  -0.25301   0.05542
C     0.48860   0.01256   0.00242
C     1.04494  -0.83517   0.98113
C     2.40937  -1.13309   0.98417
C     3.25551  -0.57692   0.01994
C     2.72143   0.27609  -0.95219
C     1.35601   0.56514  -0.96357
H    -1.48890   3.63943  -0.21828
H     0.23576   2.84677  -0.12115
H    -2.45679   1.55448  -0.12954
H    -0.77889  -2.39791  -0.34117
H    -2.55738  -2.65465  -0.41101
H    -1.74047  -2.46873   1.15457
H     0.39847  -1.25645   1.75305
H     2.81540  -1.79551   1.75274
H     4.32412  -0.80419   0.02659
H     3.37177   0.71222  -1.71457
H     0.95390   1.21482  -1.74413
