23
Generated by autodE on: 2022-07-27. E = -517.874504 Ha
C     2.92965   0.58286   1.35632
N     1.82021   0.65667   0.66759
C     0.70726  -0.16490   0.55563
C     0.65839  -1.37782   1.30430
C    -0.49248  -2.34701   1.10362
O     1.56102  -1.70206   2.11724
C    -0.32152   0.31349  -0.39038
C    -1.69530   0.27267  -0.07172
C    -2.65757   0.74226  -0.96691
C    -2.27701   1.28749  -2.19791
C    -0.91918   1.35162  -2.52452
C     0.04365   0.86328  -1.63864
H     3.63757   1.40359   1.24029
H     3.10271  -0.26902   2.00490
H     1.74449   1.49875   0.09016
H    -0.11017  -3.36264   1.28248
H    -0.94529  -2.29377   0.10495
H    -1.28559  -2.15738   1.84588
H    -2.01075  -0.10869   0.90012
H    -3.71430   0.69856  -0.69136
H    -3.03138   1.66164  -2.89388
H    -0.60465   1.76965  -3.48408
H     1.09625   0.89210  -1.93280
