16
Generated by autodE on: 2022-06-14. E = -3218.295006 Ha
F     2.29954  -0.04682   0.35906
C     1.58313  -1.04824  -0.16962
F     1.60944  -2.07272   0.71320
F     2.23988  -1.47731  -1.26723
C     0.18749  -0.66405  -0.48624
C    -0.54736   0.40950  -0.17377
Br   -0.13888   1.96859   0.76644
C    -1.98965   0.07143  -0.64203
C    -2.50494  -1.03140   0.31040
C    -1.77983  -2.10980   0.00188
C    -0.83504  -1.64325  -1.12790
O    -1.67915  -0.69993  -1.80859
H    -2.64539   0.92151  -0.85511
H    -3.25697  -0.88658   1.08464
H    -1.77188  -3.10196   0.45087
H    -0.42055  -2.40092  -1.80065
