35
Generated by autodE on: 2022-06-12. E = -3343.886631 Ha
C    -2.03309   2.67847   1.10392
C    -1.86495   2.28331  -0.33304
O    -2.60632   2.65509  -1.22017
C    -0.70352   1.32415  -0.66463
Br    0.85831   2.63595  -0.87686
C    -0.34820   0.37884   0.36409
C     0.00065  -0.68393   0.83225
C     0.42504  -2.07781   0.84347
C     1.52702  -2.39221   1.89394
C     1.54460  -1.54327   3.12675
O     2.30019  -3.30808   1.69877
C    -0.78384  -2.98219   1.24082
C    -0.70325  -4.43607   0.88599
O    -1.73062  -2.49864   1.82804
C     0.94350  -2.36823  -0.59833
C     0.00005  -1.93832  -1.74143
C     0.15713  -0.50575  -2.32848
C    -0.90069   0.55809  -1.98147
H    -1.06719   2.89379   1.58242
H    -2.70653   3.54156   1.18073
H    -2.47822   1.82328   1.64079
H     1.87297  -0.52572   2.85743
H     2.22811  -1.96815   3.87270
H     0.52550  -1.45069   3.53425
H    -0.91022  -4.55068  -0.19101
H     0.30205  -4.84045   1.06897
H    -1.45864  -4.99284   1.45518
H     1.91298  -1.85765  -0.70502
H     1.15401  -3.44278  -0.66980
H     0.19064  -2.64143  -2.56624
H    -1.05000  -2.11057  -1.44937
H     1.16219  -0.11422  -2.09922
H     0.12501  -0.60287  -3.42406
H    -1.89283   0.08075  -1.90392
H    -0.97737   1.29866  -2.78955
