25
Generated by autodE on: 2022-06-12. E = -780.623539 Ha
C     5.09748   0.48087   0.50452
O     3.83574   0.03124  -0.00112
C     2.73769   0.53972   0.58908
O     2.77842   1.34766   1.51141
C     1.51913   0.03330   0.02097
N     0.27690   0.44001   0.50864
C    -0.69520  -0.14835  -0.15573
C    -2.12767  -0.01252   0.01662
C    -2.99019  -0.71794  -0.84466
C    -4.37034  -0.59633  -0.69762
C    -4.90136   0.22387   0.30323
C    -4.04646   0.92503   1.16227
C    -2.66557   0.81161   1.02526
O    -0.17709  -0.94572  -1.08572
C     1.27762  -0.87765  -1.02912
O     1.93054  -1.54228  -1.80678
H     5.86132  -0.03567  -0.08875
H     5.20741   0.22093   1.56782
H     5.20100   1.56960   0.38527
H     0.16496   1.10656   1.27187
H    -2.57175  -1.35520  -1.62441
H    -5.03546  -1.14409  -1.36831
H    -5.98371   0.31761   0.41585
H    -4.45946   1.56441   1.94502
H    -2.01263   1.36256   1.70485
