60
Generated by autodE on: 2022-06-12. E = -4124.491088 Ha. Imaginary frequency = -404.9 cm-1
C    26.09462  45.73862  18.75013
O    26.48825  44.39072  19.04460
C    26.63933  43.56817  17.99946
O    26.53543  43.91007  16.83713
C    26.91648  42.19742  18.43367
N    27.11658  41.85430  19.74984
C    27.24201  40.49401  19.77336
C    27.68093  39.72147  20.94718
C    27.74448  40.31492  22.22040
C    28.14337  39.56209  23.32240
C    28.48266  38.21279  23.17039
C    28.43705  37.62348  21.90430
C    28.04401  38.37305  20.79538
O    27.79049  40.12871  18.56185
C    27.59367  41.17268  17.65020
O    27.98888  41.09706  16.51460
C    25.20162  40.13983  19.28462
C    24.96129  40.92887  18.33374
C    24.00235  41.41528  17.33350
Br   24.80804  41.14164  15.50059
C    23.64667  42.90332  17.53532
C    23.07657  43.69586  16.39933
O    23.78745  43.37604  18.64809
C    22.68988  40.58647  17.31727
C    21.75131  40.76514  18.51571
C    22.31091  40.43883  19.90487
C    23.01553  39.07537  20.00248
C    24.58091  39.16102  20.22407
C    25.06981  37.72168  19.94831
C    25.49662  37.42338  18.53677
O    25.00779  36.85241  20.79668
C    24.73056  39.69876  21.66808
C    24.69772  38.77597  22.84750
O    24.79726  40.90883  21.81861
H    25.11202  45.74599  18.25742
H    26.03715  46.25235  19.71639
H    26.83802  46.22556  18.10336
H    26.60902  42.33480  20.49190
H    27.47578  41.36289  22.35580
H    28.18723  40.03139  24.30729
H    28.78729  37.62428  24.03858
H    28.70841  36.57370  21.77587
H    28.02368  37.91142  19.80900
H    23.91578  44.09714  15.80900
H    22.49646  44.53546  16.80428
H    22.46072  43.08380  15.72711
H    22.13693  40.85909  16.40716
H    22.98281  39.53318  17.20334
H    20.88611  40.11125  18.31437
H    21.35579  41.79394  18.52609
H    21.47383  40.45970  20.61934
H    22.99226  41.23832  20.22404
H    22.84156  38.48467  19.09126
H    22.61102  38.47707  20.83061
H    26.36760  38.03043  18.25248
H    25.72926  36.35519  18.44214
H    24.68781  37.69760  17.84100
H    23.83594  38.09637  22.80112
H    25.59812  38.14519  22.84766
H    24.66543  39.37981  23.76351
