32
Generated by autodE on: 2022-05-29. E = -1066.019664 Ha
C     2.44410   2.46412  -0.10037
C     2.64048   1.34167   0.86911
O     3.72794   0.98961   1.28839
C     1.39633   0.56629   1.32875
O     0.18828   1.28323   1.11126
C    -0.68746   0.58022   0.23397
C    -2.03541   0.32782   0.96308
C    -1.95090  -0.03445   2.41268
O    -3.07781   0.44694   0.34974
C    -0.96273   1.44320  -1.02262
C    -1.27085   2.89151  -0.78735
O    -0.89110   0.94778  -2.12926
C     0.05372  -0.70950  -0.06391
C    -0.48677  -1.81686  -0.91619
F    -0.35774  -3.01816  -0.31123
F     0.14996  -1.92089  -2.09852
F    -1.79500  -1.65864  -1.18249
C     1.24195  -0.72689   0.56063
C     2.29543  -1.77681   0.59063
H     3.41674   2.87507  -0.39905
H     1.82389   3.24920   0.35964
H     1.89468   2.09925  -0.98312
H     1.52483   0.36219   2.40682
H    -2.92318  -0.40496   2.76183
H    -1.67408   0.86691   2.98326
H    -1.16192  -0.78170   2.58575
H    -0.32183   3.42061  -0.60363
H    -1.74712   3.31836  -1.67981
H    -1.90349   3.03591   0.09958
H     2.42241  -2.13888   1.62453
H     3.26448  -1.35267   0.28633
H     2.06088  -2.62975  -0.05595
