50
Generated by autodE on: 2022-06-23. E = -1315.950448 Ha
C    -0.47994   2.28477   2.57453
N    -0.99837   1.58099   1.42227
C    -0.71737   1.90074   0.15329
O    -0.08322   2.90208  -0.20399
C    -1.19891   0.88493  -0.89392
N    -2.09974  -0.10018  -0.33569
C    -3.52618   0.06939  -0.51430
C    -1.53019  -1.41731  -0.22063
C    -2.14647  -2.36617  -1.17952
N    -2.71319  -3.07663  -1.90136
C    -1.82395  -2.00197   1.22539
C    -1.72010  -3.48169   1.43391
O    -2.24472  -1.24171   2.07235
C     0.00646  -1.19438  -0.55347
C     0.71597  -2.42045  -1.14948
C     0.75733  -0.88545   0.74616
O     0.54987  -1.54969   1.75059
C     1.81647   0.14426   0.75691
O     2.43458   0.22475   1.94179
C     3.08764   1.43519   2.35267
C     2.11994   0.86894  -0.36671
O     3.24542   1.60566  -0.39644
C     3.21961   2.95505  -0.89434
C     1.29672   0.76981  -1.58638
O     1.69411   1.26836  -2.63005
C    -0.04448   0.03490  -1.51913
C    -0.45273  -0.33703  -2.94998
H    -1.29710   2.66134   3.20921
H     0.14687   1.60927   3.17709
H     0.12649   3.13370   2.23688
H    -1.54653   0.72654   1.55858
H    -1.67757   1.47351  -1.69051
H    -3.85413  -0.11787  -1.55533
H    -3.80808   1.09693  -0.24157
H    -4.07316  -0.61284   0.15177
H    -0.94411  -3.94078   0.80793
H    -1.53619  -3.68772   2.49606
H    -2.68797  -3.93152   1.15394
H     0.75152  -3.23493  -0.41408
H     1.74863  -2.15307  -1.41572
H     0.20691  -2.78333  -2.05026
H     3.12919   1.38725   3.44862
H     4.10444   1.49194   1.94372
H     2.50976   2.31690   2.04279
H     3.95435   3.51308  -0.29754
H     2.22420   3.39778  -0.76191
H     3.50589   2.98047  -1.95396
H    -1.42984  -0.83394  -2.97476
H    -0.52390   0.57897  -3.54917
H     0.28821  -0.99401  -3.42330
