26
Generated by autodE on: 2022-06-23. E = -689.460889 Ha
C     2.14298   2.22993   0.97760
O     1.82284   0.86058   1.24451
C     0.74574   0.36281   0.56789
C     0.85619  -0.51563  -0.46816
O     1.95222  -1.02062  -1.03329
C     3.27385  -0.67613  -0.60497
C    -0.38599  -1.05682  -1.12569
O    -0.26547  -1.83987  -2.05788
C    -1.72051  -0.62252  -0.63916
C    -2.92794  -1.17610  -1.33082
C    -1.81810   0.24620   0.39771
C    -3.14045   0.70779   0.92346
C    -0.58694   0.76561   1.06614
O    -0.66815   1.52086   2.03339
H     3.02085   2.47240   1.59112
H     1.31147   2.89668   1.25061
H     2.39166   2.37024  -0.08755
H     3.94603  -1.25419  -1.25171
H     3.43398  -0.95643   0.44423
H     3.46621   0.39741  -0.74193
H    -3.56330  -1.73079  -0.62064
H    -3.54960  -0.36277  -1.73980
H    -2.64514  -1.84883  -2.14884
H    -3.01362   1.39899   1.76473
H    -3.74798  -0.15010   1.25626
H    -3.71877   1.21223   0.13166
