50
Generated by autodE on: 2022-06-23. E = -1315.885638 Ha. Imaginary frequency = -310.3 cm-1
C    -1.77933   3.23357   2.17572
N    -2.05486   2.30972   1.09150
C    -1.07556   1.94364   0.24049
O    -0.00311   2.54263   0.16127
C    -1.51759   0.93977  -0.80808
N    -2.31466  -0.12979  -0.50697
C    -3.41839  -0.43971  -1.43935
C    -1.88917  -1.14793   0.32245
C    -2.55760  -2.39472   0.19147
N    -3.06270  -3.43916   0.07899
C    -0.99758  -0.98989   1.47593
C    -0.73247  -2.21654   2.31124
O    -0.48980   0.09315   1.76896
C     0.23584  -1.30566  -1.24316
C    -0.29529  -2.48507  -2.00130
C     1.23587  -1.62397  -0.20470
O     1.43575  -2.78662   0.16629
C     2.02280  -0.52838   0.38849
O     2.72485  -0.89472   1.48771
C     2.83600   0.02358   2.58081
C     2.09980   0.68867  -0.22860
O     2.99822   1.57735   0.22171
C     3.05932   2.94803  -0.19127
C     1.29143   0.93183  -1.45401
O     1.63638   1.77621  -2.26988
C     0.11902   0.02128  -1.75237
C    -0.37146   0.17482  -3.18412
H    -2.72133   3.48407   2.67917
H    -1.08538   2.79508   2.91290
H    -1.32893   4.15696   1.78627
H    -2.84600   1.68298   1.19606
H    -1.90324   1.50267  -1.66252
H    -3.15101  -1.25950  -2.11810
H    -3.64714   0.45921  -2.01963
H    -4.30580  -0.72435  -0.85908
H    -0.53937  -3.10464   1.69563
H     0.13107  -2.02073   2.95907
H    -1.61595  -2.42629   2.93732
H    -0.36484  -3.37085  -1.35933
H     0.40281  -2.72736  -2.82470
H    -1.27309  -2.29256  -2.45501
H     3.04146  -0.58741   3.47061
H     3.65746   0.73692   2.42857
H     1.89198   0.56923   2.72344
H     3.67122   3.44743   0.57195
H     2.06237   3.40032  -0.22045
H     3.54574   3.04016  -1.17120
H    -1.34109  -0.31227  -3.33535
H    -0.46672   1.23386  -3.45177
H     0.34826  -0.28686  -3.87947
