43
Generated by autodE on: 2022-06-07. E = -1760.833117 Ha
C     0.89016   3.07027  -0.82236
N     0.21744   1.93909  -0.17484
C    -1.13083   1.69104  -0.62563
C    -2.03370   2.88191  -0.80597
O    -0.94053   1.07647  -1.96966
C     0.24638   0.45521  -1.95349
O     0.73745  -0.05740  -2.92393
C     0.76569   0.60293  -0.48425
C     2.26052   0.44779  -0.28458
C     3.02135  -0.42488  -1.07796
C     4.39716  -0.55433  -0.87382
C     5.03818   0.18568   0.12174
C     4.29032   1.06172   0.91273
C     2.91579   1.19091   0.71180
C    -0.22843  -0.33529   0.38822
C    -0.29395  -1.78076  -0.21646
F    -0.94635  -1.82184  -1.38229
F     0.93494  -2.25734  -0.45920
F    -0.89145  -2.64853   0.60679
C     0.32145  -0.53632   1.83967
F    -0.59326  -1.11487   2.63217
F     0.69467   0.60100   2.42919
F     1.39557  -1.34032   1.84471
C    -1.58670   0.55580   0.35260
C    -1.94776   1.20161   1.71076
C    -2.89847  -0.14819  -0.10860
F    -3.09912  -1.27826   0.59101
F    -2.97550  -0.45347  -1.40595
F    -3.96261   0.64426   0.13214
H     0.37162   3.99556  -0.54401
H     0.91564   2.99589  -1.92456
H     1.91960   3.14445  -0.45931
H    -3.04991   2.55919  -1.06260
H    -2.07026   3.48106   0.11197
H    -1.65438   3.50641  -1.62442
H     2.54518  -1.00651  -1.86192
H     4.96879  -1.24082  -1.50246
H     6.11434   0.08286   0.27931
H     4.77670   1.65160   1.69282
H     2.35219   1.87823   1.33879
H    -1.10892   1.77392   2.10625
H    -2.78748   1.88815   1.57231
H    -2.24875   0.44503   2.44251
