43
Generated by autodE on: 2022-06-07. E = -1760.810276 Ha. Imaginary frequency = -302.3 cm-1
C     0.61161   3.04962   0.53900
N     0.35551   1.97620  -0.41698
C    -0.90775   1.71966  -0.93720
C    -1.87062   2.83039  -1.21553
O    -0.71160   0.84596  -1.98399
C     0.54406   0.28913  -1.89365
O     0.93665  -0.55252  -2.67237
C     1.20638   1.00632  -0.80486
C     2.61266   0.83066  -0.45176
C     3.15343  -0.47175  -0.49512
C     4.49558  -0.68816  -0.19331
C     5.32521   0.38610   0.14560
C     4.80287   1.68211   0.17326
C     3.45843   1.90846  -0.12229
C    -0.61188  -0.65692   0.52194
C    -0.74560  -1.97457  -0.19673
F    -1.51544  -1.91087  -1.29115
F     0.43216  -2.49491  -0.60820
F    -1.29157  -2.93165   0.60510
C     0.26984  -0.77658   1.74307
F    -0.43703  -1.06764   2.86784
F     0.96421   0.34836   2.03877
F     1.18758  -1.75405   1.63614
C    -1.61234   0.37139   0.50486
C    -1.79176   1.21961   1.76342
C    -3.01934   0.06204  -0.06015
F    -3.49441  -1.08795   0.46545
F    -3.12396  -0.04130  -1.39093
F    -3.89786   1.02383   0.29057
H     1.24195   2.68335   1.35603
H    -0.33747   3.40886   0.94311
H     1.11210   3.88254   0.02679
H    -2.76156   2.42391  -1.70746
H    -2.17656   3.34691  -0.29825
H    -1.40111   3.56151  -1.89317
H     2.51035  -1.31247  -0.74604
H     4.89585  -1.70400  -0.21919
H     6.37769   0.21379   0.38174
H     5.44710   2.52867   0.42023
H     3.08609   2.93089  -0.12802
H    -0.84546   1.48118   2.23637
H    -2.33149   2.14708   1.54775
H    -2.38363   0.65052   2.49715
