19
Generated by autodE on: 2022-07-27. E = -585.838464 Ha
C     2.78423  -2.09668   1.71518
N     1.62532  -1.50190   1.07967
C     1.62079  -0.20856   0.70287
O     2.58726   0.55315   0.86443
C     0.39382   0.29975   0.06899
C     0.32180   1.63694  -0.35981
N     0.29193   2.75293  -0.70489
O    -0.61260  -0.55658  -0.06886
C    -1.81143  -0.52600  -0.55117
C    -2.61059  -1.77542  -0.48511
C    -2.34835   0.65364  -1.12866
N    -2.87395   1.57001  -1.62225
H     3.66845  -2.05332   1.05931
H     2.56295  -3.14718   1.93861
H     3.03560  -1.58007   2.65523
H     0.80071  -2.06996   0.91872
H    -3.54211  -1.60494   0.08020
H    -2.02169  -2.56272   0.00358
H    -2.89525  -2.10269  -1.49932
