19
Generated by autodE on: 2022-06-03. E = -585.839666 Ha
C     3.43398  -1.33499   0.20351
N     2.06829  -0.87513   0.06169
C     1.55785   0.15233   0.77012
O     2.18975   0.81002   1.61050
C     0.14707   0.49680   0.50499
C    -0.44145   1.56399   1.21382
N    -0.86917   2.45648   1.83397
O    -0.48284  -0.23600  -0.40196
C    -1.67902  -0.24613  -0.90301
C    -2.75209   0.69584  -0.51722
C    -1.86226  -1.26211  -1.87507
N    -2.05174  -2.08571  -2.67890
H     3.97208  -1.27190  -0.75535
H     3.94729  -0.70414   0.93829
H     3.46634  -2.38004   0.55042
H     1.46522  -1.34991  -0.60241
H    -2.44222   1.73618  -0.71332
H    -2.97750   0.60574   0.55891
H    -3.66036   0.47816  -1.09217
