31
Generated by autodE on: 2022-05-30. E = -1454.879406 Ha
C     2.96233  -1.07153  -0.20155
C     1.70715  -0.28207  -0.45842
O     1.67657   0.97209   0.26472
C     0.57965   1.51822  -0.41490
C     0.37499   2.92745  -0.06978
N     0.24904   4.05053   0.17602
O     0.95366   1.46027  -1.79485
C     1.65055   0.28039  -1.90012
O     2.17116  -0.10160  -2.90334
C    -0.58418   0.46595  -0.13532
C    -1.37484   0.94020   1.09322
F    -0.55712   1.31145   2.09328
F    -2.10411   2.01996   0.74861
F    -2.22715   0.04337   1.58702
C    -1.51476   0.15948  -1.37858
C    -2.51804  -0.90738  -0.96021
C    -1.81939  -2.04616  -0.89017
C    -0.39584  -1.67393  -1.27835
O    -0.62231  -0.60425  -2.19617
C     0.27640  -0.86439  -0.10008
C     0.36864  -1.68926   1.18923
F     1.06728  -2.81395   0.94811
F     0.98804  -1.02854   2.17898
F    -0.82118  -2.08018   1.66088
H     2.93223  -2.00151  -0.78447
H     3.08332  -1.30897   0.86099
H     3.82525  -0.47841  -0.53369
H    -1.87863   1.05301  -1.89449
H    -3.56069  -0.72271  -0.70797
H    -2.14525  -3.03453  -0.57150
H     0.24830  -2.44744  -1.70841
