19
Generated by autodE on: 2022-05-30. E = -981.905174 Ha
F     2.10379   0.85202   0.48107
C     1.82747  -0.26472  -0.20914
F     2.32559  -0.10268  -1.44824
F     2.51754  -1.26892   0.36660
C     0.37355  -0.60043  -0.23510
C    -0.72819   0.14957  -0.15365
C    -0.92373   1.61480   0.03891
F     0.08897   2.34892  -0.44293
F    -2.04720   2.03313  -0.57412
F    -1.05783   1.91686   1.34612
C    -1.89677  -0.87612  -0.10244
C    -1.79064  -1.59969   1.25783
C    -0.69029  -2.35004   1.15998
C    -0.14596  -2.06631  -0.25772
O    -1.36663  -1.87531  -0.98283
H    -2.87842  -0.50985  -0.41712
H    -2.46567  -1.44680   2.09854
H    -0.20370  -2.98606   1.89787
H     0.51031  -2.81052  -0.71900
