31
Generated by autodE on: 2022-05-30. E = -1454.804912 Ha. Imaginary frequency = -134.8 cm-1
C     3.35855  -0.78774   0.09279
C     2.29366   0.05413  -0.48209
O     1.84556   1.14095   0.17484
C     1.00200   1.79226  -0.61104
C     0.55840   3.09260  -0.29211
N     0.15228   4.15231  -0.03512
O     1.07741   1.34272  -1.85545
C     1.86486   0.15497  -1.84709
O     2.03808  -0.50752  -2.84116
C    -0.91103   0.20317   0.03024
C    -1.34553   0.94697   1.25662
F    -0.33127   1.30883   2.05757
F    -2.01706   2.06494   0.92680
F    -2.18699   0.19500   1.99924
C    -1.80837   0.18465  -1.24195
C    -2.85882  -0.92319  -0.99578
C    -2.17281  -2.06778  -1.06466
C    -0.71546  -1.63840  -1.35273
O    -0.93152  -0.47777  -2.15298
C    -0.20996  -0.96787  -0.04434
C     0.29298  -1.81526   1.08018
F     1.15001  -2.75768   0.64964
F     0.90529  -1.11555   2.04797
F    -0.73681  -2.47191   1.66002
H     3.34927  -1.76997  -0.39662
H     3.22792  -0.91145   1.17498
H     4.34264  -0.32072  -0.08941
H    -2.15058   1.15412  -1.61501
H    -3.90833  -0.74669  -0.76556
H    -2.50074  -3.09408  -0.90802
H    -0.04157  -2.35707  -1.82770
