26
Generated by autodE on: 2022-05-28. E = -557.193275 Ha
C    -3.05260  -0.88772   0.18665
N    -1.78117  -0.85425  -0.13735
C    -1.29573  -1.91918  -1.04336
C    -0.83263   0.08394   0.28568
C    -1.17653   1.14596   1.16154
C    -0.06120   2.10721   1.55100
O    -2.32792   1.34762   1.63587
C     0.56848  -0.06827  -0.20932
C     0.98283   0.54387  -1.40498
C     2.30083   0.42479  -1.85448
C     3.23089  -0.30821  -1.11025
C     2.83585  -0.91935   0.08405
C     1.51637  -0.79817   0.52863
H    -3.66517  -1.68737  -0.22628
H    -3.43694  -0.11972   0.85002
H    -2.13075  -2.57963  -1.29606
H    -0.88737  -1.46811  -1.95468
H    -0.50340  -2.49056  -0.54661
H     0.75209   1.58798   2.08139
H    -0.48120   2.88180   2.20729
H     0.38911   2.58604   0.66788
H     0.25743   1.12004  -1.98477
H     2.60357   0.90742  -2.78701
H     4.26219  -0.40126  -1.45930
H     3.55796  -1.49139   0.67187
H     1.20828  -1.27391   1.46302
