33
Generated by autodE on: 2022-05-28. E = -673.887003 Ha. Imaginary frequency = -426.6 cm-1
C     0.79960   2.67831  -0.76268
C    -0.38733   2.04443  -0.05813
O    -1.40640   2.73846   0.11238
C    -0.27356   0.64840   0.31814
C     1.03560  -0.06855   0.20998
C     1.67205  -0.32638  -1.01541
C     2.91793  -0.95841  -1.06139
C     3.55045  -1.36145   0.11762
C     2.92613  -1.11996   1.34651
C     1.68800  -0.47795   1.39048
C    -1.44666  -0.19539  -1.70811
C    -2.04227  -1.18515  -1.24596
C    -2.92186  -2.36962  -1.33871
C    -1.43394  -1.30067   0.84886
N    -1.24989   0.00978   1.06773
C    -2.38496   0.72834   1.66071
H     0.87154   2.31539  -1.80046
H     0.63966   3.76468  -0.78822
H     1.75576   2.45113  -0.27058
H     1.18655  -0.03476  -1.94615
H     3.39178  -1.14437  -2.02847
H     4.52152  -1.86087   0.08062
H     3.41041  -1.42567   2.27738
H     1.21407  -0.28749   2.35593
H    -1.09281   0.57459  -2.37236
H    -2.40670  -3.27357  -0.97511
H    -3.81935  -2.24162  -0.71227
H    -3.24582  -2.55003  -2.37664
H    -0.57861  -1.89985   0.54393
H    -2.22137  -1.79849   1.41733
H    -2.87591   0.05051   2.36981
H    -3.09960   1.03013   0.88328
H    -2.03788   1.62053   2.18869
