27
Generated by autodE on: 2022-06-20. E = -744.686007 Ha
C     4.35229   0.37704  -0.22941
C     3.18438  -0.38999   0.35017
O     3.37668  -1.33525   1.12905
C     1.87165   0.04627  -0.04663
C     1.53641   1.15751  -0.85762
O     2.13833   2.01420  -1.47831
O     0.10011   1.17633  -0.85907
C    -0.35522   0.16282  -0.12272
C    -1.79316  -0.02403   0.01596
C    -2.37380  -0.49115   1.21083
C    -3.75876  -0.62595   1.30150
C    -4.57306  -0.29522   0.21382
C    -4.00070   0.18555  -0.96918
C    -2.61881   0.32809  -1.07039
N     0.65101  -0.54063   0.36467
C     0.53727  -1.80314   1.09593
H     4.30761   1.43779   0.06289
H     4.33513   0.35058  -1.32996
H     5.28461  -0.06989   0.13991
H    -1.75251  -0.71552   2.07775
H    -4.20460  -0.98175   2.23253
H    -5.65711  -0.40462   0.29087
H    -4.63488   0.44981  -1.81792
H    -2.16832   0.70083  -1.99132
H    -0.46552  -2.21326   0.94272
H     1.28683  -2.49750   0.70695
H     0.71903  -1.64196   2.16598
