12
Generated by autodE on: 2022-06-20. E = -381.636096 Ha
O     2.06546   1.68669   0.00149
C     1.11553   0.91056   0.00065
C    -0.28154   1.40743   0.02634
C    -1.32334   0.55762   0.02607
C    -1.11553  -0.91056  -0.00068
O    -2.06546  -1.68669  -0.00147
C     0.28154  -1.40743  -0.02634
C     1.32334  -0.55762  -0.02606
H    -0.41010   2.49221   0.04565
H    -2.36039   0.90068   0.04501
H     0.41010  -2.49221  -0.04563
H     2.36039  -0.90068  -0.04499
