39
Generated by autodE on: 2022-06-20. E = -1126.299838 Ha. Imaginary frequency = -442.4 cm-1
C    -2.82832  -2.86807  -1.07036
C    -2.64160  -1.39154  -1.26817
O    -3.57994  -0.66552  -1.57205
C    -1.32437  -0.74753  -1.04172
C    -1.10015   0.67388  -1.32418
O    -1.79309   1.55683  -1.76623
O     0.20574   0.90694  -0.93792
C     0.70877  -0.24552  -0.35358
C     2.19005  -0.29329  -0.28670
C     2.93295   0.57382  -1.10496
C     4.32750   0.55868  -1.05978
C     4.99368  -0.31649  -0.19740
C     4.25803  -1.17301   0.62718
C     2.86357  -1.15804   0.59172
C    -0.07168  -0.08194   1.45214
C     0.44831   1.25071   1.87442
O     1.58037   1.38530   2.32574
C    -0.44804   2.41969   1.70695
C    -1.75474   2.27427   1.42100
C    -2.37362   0.93381   1.25641
O    -3.59582   0.81512   1.13829
C    -1.47240  -0.21762   1.24418
N    -0.08150  -1.29167  -0.82786
C     0.21524  -2.67873  -0.50726
H    -3.90010  -3.09131  -1.14287
H    -2.28925  -3.42923  -1.84972
H    -2.44417  -3.19399  -0.09322
H     2.41590   1.25574  -1.77985
H     4.89486   1.23436  -1.70349
H     6.08542  -0.32706  -0.16279
H     4.77118  -1.85129   1.31202
H     2.30665  -1.81274   1.26146
H     0.44172  -0.92264   1.92518
H     0.00827   3.40068   1.86063
H    -2.42606   3.13084   1.32342
H    -1.94884  -1.18773   1.39440
H    -0.26691  -3.33383  -1.23686
H     1.29714  -2.82938  -0.57469
H    -0.12857  -2.93082   0.50811
