28
Generated by autodE on: 2022-06-06. E = -653.567696 Ha
C     3.52863   1.27387  -0.24849
O     2.29523   0.81954   0.32999
C     1.59184  -0.06390  -0.37775
O     1.97654  -0.56390  -1.41885
C     0.30926  -0.43410   0.26455
C    -0.82791   0.30087   0.34238
C    -0.99905   1.66533  -0.20100
C    -2.35100   2.30337  -0.04587
O    -0.07123   2.24267  -0.76366
C    -1.91894  -0.63141   0.84821
C    -2.22300  -1.59650  -0.34506
C    -0.91479  -2.42752  -0.46048
C    -0.02664  -1.85023   0.69386
C    -1.09636  -1.55814   1.76661
H     4.20481   0.42783  -0.43636
H     3.97081   1.95921   0.48356
H     3.32952   1.80267  -1.19215
H    -3.11251   1.68834  -0.55369
H    -2.63339   2.34149   1.01874
H    -2.34499   3.31493  -0.47161
H    -2.80239  -0.14686   1.27863
H    -2.46402  -1.04196  -1.26285
H    -3.08370  -2.23563  -0.09955
H    -1.09712  -3.49680  -0.27865
H    -0.41663  -2.32640  -1.43405
H     0.83003  -2.47636   0.96978
H    -1.64472  -2.45909   2.08014
H    -0.69036  -1.04071   2.64809
