59
Generated by autodE on: 2022-06-06. E = -1458.610364 Ha. Imaginary frequency = -268.6 cm-1
C    -1.45451  -3.98184   2.81273
O    -0.96972  -3.30722   1.64423
C    -1.83212  -2.48739   1.02515
O    -3.00844  -2.41427   1.32458
C    -1.20441  -1.79140  -0.12800
C    -1.86905  -2.09223  -1.41843
C    -1.04303  -2.47084  -2.62470
O    -3.09610  -2.07507  -1.50234
O     0.15704  -1.71843  -0.21041
C     0.97877  -1.07376   0.61342
C     0.77853  -1.16440   2.08959
C     2.31581  -0.85926   0.04073
C     3.36260  -0.33655   0.82837
C     4.61590  -0.08757   0.27105
C     4.85525  -0.35861  -1.07909
C     3.82919  -0.88930  -1.86926
C     2.57484  -1.13762  -1.31861
C    -0.05982   1.02595   0.29130
C     0.46743   1.65706   1.52625
O    -0.05872   1.74856   2.61968
O     1.69060   2.17409   1.29165
C     2.35877   2.78088   2.39963
C     0.45609   1.60460  -1.03410
C    -0.26325   2.97755  -1.18594
C    -1.74223   2.55664  -1.41765
C    -1.67377   0.99239  -1.41073
C    -0.30360   0.77343  -2.06962
C    -1.39831   0.60759   0.04406
C    -2.51616   0.47259   1.02401
C    -3.91288   0.57657   0.46973
O    -2.33685   0.24367   2.21394
H    -0.60550  -4.55290   3.20562
H    -1.80198  -3.25286   3.55914
H    -2.27998  -4.65963   2.55207
H     0.02816  -2.56494  -2.42597
H    -1.20818  -1.73194  -3.42337
H    -1.43395  -3.43406  -2.98800
H     1.44056  -0.47776   2.62275
H    -0.25353  -0.94363   2.38198
H     1.02037  -2.19035   2.40864
H     3.20370  -0.10849   1.88045
H     5.41033   0.32182   0.89867
H     5.83793  -0.16185  -1.51365
H     4.00823  -1.11324  -2.92307
H     1.78998  -1.55706  -1.94448
H     3.34067   3.09369   2.02546
H     1.79600   3.65344   2.76265
H     2.47955   2.06116   3.22240
H     1.54575   1.64279  -1.12410
H    -0.13065   3.61996  -0.30405
H     0.14275   3.51514  -2.05561
H    -2.11382   2.89666  -2.39534
H    -2.42210   2.94767  -0.64838
H    -2.53741   0.50546  -1.87165
H     0.01901  -0.26660  -2.10968
H    -0.25037   1.20187  -3.08091
H    -4.06228  -0.22988  -0.26451
H    -4.07190   1.53157  -0.05260
H    -4.63559   0.47099   1.28860
