60
Generated by autodE on: 2022-06-25. E = -1642.211787 Ha
C    -3.96233  -1.68158   2.65634
O    -3.18026  -1.14373   1.57616
C    -2.07692  -1.79900   1.25415
O    -1.71450  -2.82065   1.79609
C    -1.28794  -1.17366   0.06786
C    -2.13721  -1.38443  -1.21525
O    -3.33600  -1.20968  -1.25503
O    -1.42498  -1.83532  -2.23757
C    -2.11750  -1.98456  -3.48579
N     0.02914  -1.74857  -0.05072
C     0.25943  -3.15541  -0.33604
C     1.05537  -1.03106   0.68608
C     1.59321  -1.84074   1.81068
N     2.05564  -2.53745   2.61415
C     2.23665  -0.62256  -0.21355
C     2.07769  -0.60392  -1.60281
C     3.09670  -0.10478  -2.41865
C     4.28130   0.37425  -1.85236
C     4.45101   0.33330  -0.46496
C     3.43522  -0.16883   0.35148
C     0.25850   0.19101   1.31033
O    -0.18272  -0.26373   2.55757
C    -0.84206   0.60235   3.48791
C     1.12884   1.44630   1.43113
O     1.70501   1.66429   2.48362
C     1.28637   2.31975   0.24831
C     2.32652   3.39148   0.32324
C     0.54301   2.12998  -0.87948
C     0.76312   2.96650  -2.09981
C    -0.49921   1.07961  -0.96348
O    -1.11895   0.88134  -1.99538
C    -0.92353   0.35351   0.32992
O    -1.85933   1.16414   0.97439
C    -3.00707   1.65124   0.27668
H    -4.33764  -2.68037   2.39206
H    -4.79544  -0.98430   2.79759
H    -3.35484  -1.74467   3.56965
H    -2.95531  -2.68750  -3.37949
H    -2.49304  -1.00770  -3.82269
H    -1.37747  -2.37440  -4.19337
H     1.11551  -3.26438  -1.02157
H     0.46383  -3.74264   0.57382
H    -0.61951  -3.58792  -0.82306
H     1.14826  -0.96444  -2.04123
H     2.95912  -0.08673  -3.50201
H     5.07368   0.77216  -2.49025
H     5.37647   0.69720  -0.01345
H     3.57286  -0.18585   1.43413
H    -0.39415   0.41440   4.47481
H    -1.91369   0.36127   3.51905
H    -0.72568   1.66237   3.23713
H     1.87940   4.38006   0.13031
H     3.09243   3.23238  -0.45290
H     2.81258   3.40384   1.30529
H     0.11093   2.65078  -2.92151
H     0.57050   4.02929  -1.87958
H     1.81294   2.89454  -2.42605
H    -2.73234   2.38613  -0.49638
H    -3.58357   0.83547  -0.17483
H    -3.61796   2.15183   1.03920
