34
Generated by autodE on: 2022-06-25. E = -952.722627 Ha
C    -0.26157   3.22672   1.01967
O    -0.87275   1.94190   0.85494
C    -0.54275   1.26117  -0.25193
O     0.24775   1.69859  -1.07643
C    -1.18595  -0.05488  -0.34038
C    -2.46139  -0.39137   0.27501
O    -2.82612  -1.53461   0.52913
O    -3.23310   0.68036   0.53089
C    -4.46142   0.43088   1.22075
N    -0.50787  -1.05690  -1.00304
C    -1.26451  -2.04471  -1.80695
C     0.82787  -1.15096  -0.99397
C     1.45561  -1.97560  -1.96940
N     2.02839  -2.64644  -2.73131
C     1.70814  -0.48936  -0.01721
C     2.93931   0.04160  -0.43761
C     3.78949   0.65902   0.48142
C     3.42311   0.74545   1.82649
C     2.20471   0.19996   2.25434
C     1.34813  -0.41026   1.34327
H    -0.50283   3.88795   0.17500
H    -0.67089   3.63740   1.95002
H     0.83081   3.12008   1.10044
H    -4.92094   1.41316   1.38328
H    -4.27464  -0.06255   2.18620
H    -5.12797  -0.20126   0.61549
H    -2.30771  -1.73396  -1.87694
H    -1.18759  -3.03723  -1.34730
H    -0.83207  -2.06804  -2.81548
H     3.22287  -0.01818  -1.49024
H     4.73957   1.07700   0.14211
H     4.08613   1.23161   2.54551
H     1.92265   0.24975   3.30815
H     0.39949  -0.82782   1.68367
