26
Generated by autodE on: 2022-06-25. E = -689.460827 Ha
C    -3.02733   1.16466  -0.26012
O    -2.17144   0.22302  -0.91598
C    -0.90226   0.12027  -0.42289
C    -0.46079  -0.96832   0.26888
O    -1.12865  -2.06168   0.63588
C    -2.53656  -2.21446   0.42768
C     0.97896  -1.04523   0.70293
O     1.36077  -2.03781   1.30756
C     1.89539   0.08433   0.40226
C     3.31299  -0.02686   0.87186
C     1.44218   1.16775  -0.27587
C     2.32862   2.32803  -0.60103
C     0.02552   1.22485  -0.74762
O    -0.37567   2.17666  -1.41525
H    -4.00319   1.10063  -0.75947
H    -3.14511   0.90588   0.80527
H    -2.63855   2.18970  -0.34817
H    -2.79004  -3.18503   0.87270
H    -2.78065  -2.21930  -0.64226
H    -3.09741  -1.41896   0.93893
H     3.56744   0.80849   1.54477
H     3.48253  -0.97127   1.40218
H     4.01119   0.03100   0.02052
H     2.75227   2.76399   0.31873
H     1.77956   3.10657  -1.14332
H     3.18428   2.00357  -1.21650
