60
Generated by autodE on: 2022-06-25. E = -1642.154765 Ha. Imaginary frequency = -203.4 cm-1
C    -3.44314  -2.51249   2.66459
O    -2.87135  -1.56644   1.74747
C    -1.88521  -1.99488   0.98656
O    -1.44889  -3.12931   1.00897
C    -1.32025  -0.98521  -0.01908
C    -2.09523  -1.04502  -1.30514
O    -1.68584  -0.67291  -2.38558
O    -3.32865  -1.51647  -1.11017
C    -4.22705  -1.47145  -2.22979
N     0.07302  -1.08100  -0.17072
C     0.64198  -1.82049  -1.31847
C     0.86038  -0.74910   0.92530
C     0.42364  -1.20372   2.21251
N     0.06037  -1.52767   3.26996
C     2.31475  -0.53007   0.80138
C     2.90836  -0.11935  -0.40934
C     4.27417   0.14899  -0.47965
C     5.08130   0.02628   0.65449
C     4.50470  -0.36706   1.86634
C     3.14105  -0.64168   1.93988
C    -0.30342   1.26457   1.46564
O    -0.51501   1.26651   2.79152
C     0.46644   1.62323   3.77252
C     0.80003   2.00565   0.84753
O     1.74572   2.45199   1.50479
C     0.77482   2.19785  -0.63104
C     1.99006   2.80334  -1.26359
C    -0.34890   1.95022  -1.35502
C    -0.41745   2.19788  -2.83000
C    -1.61500   1.63657  -0.65490
O    -2.69329   1.88210  -1.18104
C    -1.54363   1.01071   0.71162
O    -2.61833   1.10265   1.52339
C    -3.97826   1.01758   1.08591
H    -3.85372  -3.37346   2.11844
H    -4.24082  -1.97489   3.18908
H    -2.67773  -2.85359   3.37587
H    -5.17924  -1.87183  -1.86490
H    -4.35086  -0.43319  -2.56817
H    -3.84194  -2.08825  -3.05374
H     1.59567  -2.26266  -1.01439
H    -0.03872  -2.64032  -1.57706
H     0.79174  -1.18569  -2.19865
H     2.30578   0.01081  -1.30335
H     4.70608   0.46886  -1.43023
H     6.15058   0.24096   0.59648
H     5.12022  -0.46175   2.76345
H     2.71229  -0.94496   2.89565
H     1.41879   1.10812   3.60910
H     0.03313   1.30538   4.72982
H     0.62999   2.70911   3.78211
H     1.76970   3.84156  -1.56798
H     2.27797   2.26173  -2.17610
H     2.83608   2.81973  -0.56893
H    -1.38426   1.88860  -3.24139
H    -0.26774   3.26777  -3.05387
H     0.38502   1.64956  -3.34758
H    -4.11643   0.26254   0.30624
H    -4.32951   1.99400   0.72642
H    -4.54989   0.72887   1.97832
