62
Generated by autodE on: 2022-12-31. E = -4175.338527 Ha
C   -12.13518 -22.74010  16.36645
N   -11.49912 -22.09238  17.49867
C   -12.08991 -21.07752  18.14030
O   -13.21139 -20.67108  17.81452
C   -11.26263 -20.37677  19.26470
C   -10.29714 -21.45207  19.82185
O    -9.21613 -21.68304  19.25814
N   -10.72530 -22.15959  20.86615
C    -9.91604 -23.19619  21.47084
C   -10.50196 -19.25031  18.45902
C    -9.18829 -18.65011  18.97213
C    -9.17637 -17.96453  20.33580
C    -9.32319 -18.94864  21.51873
C   -10.65386 -18.76629  22.20316
Br  -10.74567 -20.42045  23.69105
O   -10.79619 -17.65623  22.95009
C    -9.71761 -17.18501  23.75298
C   -11.89797 -19.00224  21.40620
C   -12.18307 -19.75320  20.31479
C   -13.73664 -19.80021  20.22890
C   -14.26534 -18.74113  19.21895
C   -15.68298 -18.77981  18.73304
O   -13.53419 -17.80511  18.94637
C   -14.23033 -21.24197  20.11828
O   -13.58392 -22.16264  20.58521
O   -15.42545 -21.39127  19.58772
C   -15.92544 -22.73553  19.47122
N   -14.17577 -19.31805  21.56976
N   -13.11642 -18.47115  21.97997
C   -13.44425 -17.11075  21.84988
O   -14.52613 -16.66116  22.16807
O   -12.44899 -16.38763  21.34783
C   -12.67087 -14.97699  21.23704
H   -12.22736 -22.05565  15.50766
H   -11.52941 -23.60466  16.06983
H   -13.14372 -23.08545  16.63805
H   -10.53223 -22.31651  17.72139
H   -11.67434 -22.00602  21.20113
H   -10.42634 -23.56297  22.36931
H    -8.93078 -22.80069  21.76045
H    -9.75769 -24.03917  20.77814
H   -11.24199 -18.45408  18.30270
H   -10.27624 -19.66556  17.46656
H    -8.89745 -17.90496  18.21296
H    -8.40709 -19.42303  18.95866
H    -8.21795 -17.43473  20.44358
H    -9.95801 -17.18933  20.38264
H    -8.53090 -18.79767  22.26058
H    -9.20965 -19.98379  21.18917
H    -8.90315 -16.77899  23.13563
H   -10.13751 -16.38380  24.37335
H    -9.33855 -17.99205  24.39914
H   -16.37347 -19.03360  19.54766
H   -15.78475 -19.55446  17.96012
H   -15.92944 -17.79892  18.30581
H   -15.99726 -23.20291  20.46279
H   -15.25782 -23.32579  18.82764
H   -16.91716 -22.64463  19.01513
H   -14.18091 -20.11033  22.21675
H   -12.91386 -14.54455  22.21794
H   -11.73245 -14.55610  20.85843
H   -13.48917 -14.77674  20.53047
