53
Generated by autodE on: 2022-06-29. E = -1376.890854 Ha
C    -3.68318  -0.57611  -1.92694
O    -3.38540  -0.23322  -0.56416
C    -2.22752  -0.56050  -0.00046
C    -1.30525  -1.49220  -0.39352
O    -1.55518  -2.33291  -1.42812
C    -0.56711  -2.41230  -2.46341
C    -0.15113  -1.79486   0.47558
O     0.39806  -2.88343   0.37560
C     0.35895  -0.76994   1.51442
C     0.56709  -1.53096   2.82360
C     1.69267  -0.08792   0.92665
C     2.56651   0.35895   2.03142
N     3.26812   0.73278   2.87621
C     2.52764  -0.97676   0.00196
C     3.40183  -1.93696   0.52793
C     4.10818  -2.78604  -0.32539
C     3.95115  -2.67923  -1.71159
C     3.08711  -1.71553  -2.23750
C     2.37858  -0.86512  -1.38415
N     1.23112   1.11205   0.22541
C     0.01952   1.38973   0.54015
C    -0.69813   2.50089  -0.11905
C    -0.17224   3.02558  -1.31753
C    -0.82519   4.05480  -1.98970
C    -2.01630   4.58401  -1.47741
C    -2.54651   4.07414  -0.29046
C    -1.89696   3.03808   0.38437
C    -0.57924   0.48253   1.63375
C    -0.50445   1.18512   2.99785
C    -2.01972   0.11586   1.31200
O    -2.96442   0.39435   2.02490
H    -4.56496   0.02188  -2.18851
H    -3.91069  -1.64485  -2.02249
H    -2.84222  -0.30812  -2.58239
H    -0.99748  -3.04861  -3.24742
H    -0.36031  -1.41211  -2.87527
H     0.36420  -2.86186  -2.09436
H     1.24225  -2.37917   2.65321
H     0.99612  -0.89507   3.60571
H    -0.39516  -1.92426   3.18323
H     3.52795  -2.02802   1.60882
H     4.78499  -3.53359   0.09449
H     4.50511  -3.34345  -2.37899
H     2.95857  -1.62368  -3.31839
H     1.69796  -0.12045  -1.79623
H     0.74977   2.60381  -1.71795
H    -0.40797   4.44460  -2.92080
H    -2.52983   5.39064  -2.00561
H    -3.47301   4.48307   0.11801
H    -2.33118   2.66914   1.31078
H     0.53196   1.43132   3.25881
H    -1.07841   2.11992   2.98075
H    -0.92602   0.54417   3.78267
