27
Generated by autodE on: 2022-06-29. E = -687.361278 Ha
N    -1.32149  -3.59617  -1.32871
C    -1.19976  -2.50640  -0.91720
C    -1.08228  -1.19460  -0.42015
N     0.15823  -0.70548  -0.27940
C     1.21044  -0.21755  -0.13251
C     2.48269   0.36404   0.04799
C     3.64426  -0.35735  -0.30989
C     4.89243   0.23055  -0.12450
C     4.99962   1.52108   0.40758
C     3.84609   2.23215   0.75982
C     2.58588   1.66686   0.58690
C    -2.23793  -0.37111  -0.06254
C    -3.54762  -0.87737  -0.21043
C    -4.65335  -0.09889   0.12856
C    -4.48751   1.20062   0.62228
C    -3.19325   1.71047   0.77212
C    -2.07974   0.93974   0.43571
H     3.55241  -1.36207  -0.72470
H     5.79146  -0.32510  -0.39940
H     5.98353   1.97341   0.54795
H     3.92828   3.23887   1.17482
H     1.68231   2.21391   0.85998
H    -3.69526  -1.88947  -0.59417
H    -5.65693  -0.51370   0.00506
H    -5.35611   1.80754   0.88693
H    -3.04510   2.72287   1.15631
H    -1.07994   1.36035   0.56227
