53
Generated by autodE on: 2022-06-29. E = -1376.833420 Ha. Imaginary frequency = -318.7 cm-1
C    -1.94718  -1.98624  -2.93448
O    -2.04293  -0.94897  -1.95321
C    -1.45230  -1.04085  -0.75253
C    -0.56985  -1.97721  -0.29960
O    -0.10797  -2.96303  -1.10676
C    -0.31599  -4.32917  -0.73576
C     0.01783  -1.87434   1.06127
O     0.72099  -2.80771   1.47979
C    -0.22812  -0.66839   1.84909
C     0.24026  -0.66656   3.27167
C     1.90119   0.17525   0.46934
C     2.66284   0.20617   1.67163
N     3.29302   0.21818   2.65166
C     2.27668  -0.74049  -0.61151
C     3.05175  -1.88388  -0.33911
C     3.35065  -2.78497  -1.36125
C     2.88951  -2.55669  -2.66090
C     2.12374  -1.41690  -2.93796
C     1.81247  -0.51581  -1.92386
N     1.16854   1.26407   0.19028
C     0.03554   1.70205   0.29469
C    -0.64271   2.93206  -0.05792
C    -1.42860   2.97981  -1.22386
C    -2.09426   4.16137  -1.55025
C    -2.00117   5.27806  -0.71344
C    -1.23045   5.22077   0.45354
C    -0.54840   4.05210   0.78805
C    -1.12526   0.32535   1.38876
C    -1.76709   1.26088   2.38771
C    -1.94081   0.01610   0.18117
O    -2.97582   0.62167  -0.07617
H    -0.91989  -2.08821  -3.30707
H    -2.29507  -2.94692  -2.52771
H    -2.60945  -1.67230  -3.75178
H    -1.17691  -4.43168  -0.05851
H     0.58110  -4.74388  -0.25584
H    -0.52337  -4.88191  -1.66442
H     1.04628  -1.39389   3.42035
H     0.59365   0.32500   3.58701
H    -0.59262  -0.93969   3.94479
H     3.41074  -2.06947   0.67437
H     3.94757  -3.67201  -1.13859
H     3.12858  -3.26273  -3.45915
H     1.76323  -1.23215  -3.95220
H     1.21267   0.36860  -2.14428
H    -1.50707   2.10035  -1.86368
H    -2.69455   4.20641  -2.46134
H    -2.53248   6.19714  -0.97039
H    -1.15776   6.09321   1.10637
H     0.05639   3.99649   1.69451
H    -1.01302   1.79418   2.98159
H    -2.40452   1.99687   1.88473
H    -2.39702   0.68548   3.08629
