43
Generated by autodE on: 2022-05-31. E = -1087.786327 Ha
C     4.48440   0.73603  -0.35052
N     3.04766   0.55110  -0.40309
C     2.49664  -0.67349  -0.34970
O     3.17862  -1.70851  -0.28625
C     1.01392  -0.78694  -0.37946
C     0.04241   0.12947  -0.22078
C     0.18923   1.57643   0.05581
C     0.01574   2.52292  -0.96814
C     0.18089   3.88367  -0.70093
C     0.51208   4.31124   0.58842
C     0.68229   3.37361   1.61180
C     0.52405   2.01161   1.34944
C    -1.32460  -0.55818  -0.26577
C    -2.26027   0.25457  -1.17901
C    -2.31106  -0.09251  -2.63275
O    -2.86175   1.19764  -0.69738
C    -1.88349  -0.68040   1.19395
C    -3.36434  -0.78242   1.41318
O    -1.09244  -0.77948   2.11340
N    -0.99283  -1.88234  -0.79364
C    -1.93594  -2.97769  -0.65908
C     0.41280  -2.16674  -0.54617
C     0.65319  -2.99151   0.66715
N     0.77921  -3.66412   1.60433
H     4.70328   1.80983  -0.38859
H     4.90674   0.31868   0.57739
H     4.98151   0.24131  -1.19987
H     2.44589   1.36688  -0.43624
H    -0.23545   2.18822  -1.97641
H     0.05075   4.61208  -1.50438
H     0.63967   5.37629   0.79540
H     0.94243   3.70306   2.62028
H     0.65845   1.27423   2.14191
H    -2.75965  -1.08891  -2.76980
H    -2.90167   0.66042  -3.16993
H    -1.29044  -0.14452  -3.04189
H    -3.55481  -1.35208   2.33266
H    -3.88616  -1.23122   0.55790
H    -3.76083   0.23798   1.53739
H    -2.92105  -2.66804  -1.03467
H    -2.05558  -3.34280   0.37933
H    -1.58985  -3.82115  -1.27519
H     0.86268  -2.72187  -1.38728
