22
Generated by autodE on: 2022-05-31. E = -571.035196 Ha
C    -1.10705   2.36953   0.68291
C    -0.02660   1.32808   0.50835
O     1.15812   1.67281   0.64271
C    -0.40100  -0.05572   0.23445
C    -1.75304  -0.51866  -0.02856
C    -1.96502  -1.94473  -0.50564
O    -2.74124   0.22261   0.05894
N     0.64231  -0.98833   0.35097
C     0.50031  -2.17436   1.22611
C     1.83585  -0.77134  -0.15003
C     2.07557   0.12697  -1.21957
N     2.33064   0.78986  -2.14157
H    -1.82977   2.08060   1.45756
H    -0.62057   3.31815   0.94613
H    -1.67735   2.48834  -0.24998
H    -2.18252  -2.59683   0.35539
H    -1.10707  -2.36316  -1.04803
H    -2.85006  -1.95068  -1.15657
H     0.41532  -3.07960   0.61272
H    -0.38130  -2.05152   1.86026
H     1.39730  -2.24798   1.85481
H     2.67325  -1.38076   0.19948
