21
Generated by autodE on: 2022-05-31. E = -516.660466 Ha
C     3.36231   1.17237   1.10498
N     3.61251   0.45362  -0.12854
C     2.71147  -0.16071  -0.92284
O     3.02895  -0.74847  -1.96699
C     1.32081  -0.10955  -0.50156
C     0.13552  -0.11377  -0.22115
C    -1.25016  -0.11138   0.11992
C    -2.18798  -0.76890  -0.70389
C    -3.53977  -0.76296  -0.36406
C    -3.97202  -0.10593   0.79349
C    -3.04747   0.54853   1.61537
C    -1.69332   0.54903   1.28543
H     2.29422   1.13294   1.35023
H     3.92648   0.72602   1.93858
H     3.65872   2.22907   1.01239
H     4.57286   0.39801  -0.46143
H    -1.84461  -1.27973  -1.60526
H    -4.26133  -1.27362  -1.00555
H    -5.03246  -0.10389   1.05573
H    -3.38464   1.06146   2.51877
H    -0.96703   1.05743   1.92224
