53
Generated by autodE on: 2022-06-01. E = -1093.878133 Ha
C    -1.19074   1.59042   5.29050
N    -1.03755   0.78238   4.09699
C    -0.04337  -0.11206   3.97286
O     0.85050  -0.22722   4.81418
C    -0.10268  -1.03208   2.70598
C    -0.54398  -0.10541   1.54915
O    -1.74062   0.17233   1.36863
N     0.42184   0.47000   0.81999
C     0.11485   1.41583  -0.23719
C     1.30452  -1.66440   2.53570
C     1.62250  -2.54891   1.31717
C     0.97867  -3.94918   1.25302
C    -0.24018  -4.06450   0.33305
C    -1.34198  -3.02371   0.61477
C    -2.55482  -3.20112  -0.30428
C    -1.68313  -2.95962   2.08127
C    -1.15280  -2.10559   2.97157
C    -1.70332  -2.35390   4.35129
N    -2.41524  -3.62424   4.20971
C    -2.67132  -3.89795   2.77695
C    -2.45482  -5.38264   2.48165
C    -4.12601  -3.49359   2.41741
C    -4.55536  -2.07635   2.70892
O    -4.91031  -4.30789   1.95764
H    -1.44622   0.97088   6.16663
H    -1.99416   2.31914   5.12681
H    -0.25986   2.13123   5.51680
H    -1.77295   0.78012   3.39436
H     1.38906   0.21321   0.97800
H    -0.52368   0.95535  -1.00731
H     1.05273   1.74322  -0.70156
H    -0.41390   2.29562   0.16148
H     2.04466  -0.84847   2.57008
H     1.49070  -2.24791   3.44882
H     1.42114  -2.00611   0.37925
H     2.71612  -2.67758   1.34410
H     0.71435  -4.27764   2.27162
H     1.73352  -4.66686   0.89276
H     0.08130  -3.92604  -0.71426
H    -0.65291  -5.08340   0.39692
H    -0.90273  -2.05252   0.35149
H    -2.23675  -3.14806  -1.35756
H    -3.05334  -4.17008  -0.15788
H    -3.29789  -2.40573  -0.13866
H    -2.35731  -1.51741   4.66392
H    -0.90289  -2.41746   5.11004
H    -3.27167  -3.64629   4.75887
H    -2.64169  -5.63178   1.42924
H    -1.42229  -5.65943   2.73471
H    -3.13743  -5.98790   3.09707
H    -5.55159  -1.90139   2.28257
H    -4.60078  -1.91737   3.79820
H    -3.83416  -1.35228   2.30631
