37
Generated by autodE on: 2022-06-01. E = -767.725612 Ha
C    -1.50895   2.22583  -2.76050
N    -1.17470   1.31448  -1.68394
C    -0.29473   1.60381  -0.71960
O     0.30030   2.68893  -0.64182
C    -0.03529   0.50593   0.34178
C    -0.45063   0.98637   1.75841
O    -0.99209   0.20284   2.54374
N    -0.12115   2.24884   2.06505
C    -0.38483   2.84818   3.35735
C    -0.67276  -0.76707   0.01317
C    -0.76209  -1.88469  -0.45113
C    -0.35320  -3.15982  -1.04019
C    -0.31059  -4.28676   0.00148
C     1.03634  -2.88298  -1.68571
C     2.06241  -2.12588  -0.81382
C     2.06239  -0.57053  -0.84778
C     1.50713   0.19983   0.36724
H    -2.59274   2.20781  -2.94321
H    -0.99265   1.95018  -3.69422
H    -1.20907   3.24307  -2.48133
H    -1.57149   0.37844  -1.69261
H     0.26184   2.81549   1.30773
H    -1.31163   3.44570   3.34736
H     0.44843   3.50647   3.64083
H    -0.48914   2.06070   4.11434
H    -1.05035  -3.45701  -1.84084
H     0.39855  -4.05185   0.81028
H    -1.30120  -4.44515   0.45414
H     0.00607  -5.22736  -0.47491
H     1.45854  -3.85995  -1.97422
H     0.88117  -2.32122  -2.62170
H     1.99472  -2.47254   0.23148
H     3.05600  -2.45025  -1.16076
H     1.57179  -0.21531  -1.77013
H     3.11251  -0.25155  -0.93924
H     2.01912   1.16851   0.45391
H     1.71463  -0.36299   1.29070
