16
Generated by autodE on: 2022-06-01. E = -326.054564 Ha
C    -2.57352  -0.08295  -0.21517
N    -1.29410  -0.31771  -0.34634
C    -0.20683   0.27515   0.22907
C    -0.43387   1.39429   1.18428
C     1.03291  -0.28751  -0.19148
C     2.32065   0.27326   0.37447
O     1.07578  -1.23517  -1.02131
H    -2.91972   0.70826   0.44925
H    -3.27168  -0.69588  -0.78355
H    -0.99338  -1.07202  -0.98216
H    -1.05174   1.07617   2.04612
H     0.51204   1.78682   1.57616
H    -0.97596   2.23313   0.70647
H     2.43344   1.34090   0.12566
H     2.34387   0.19202   1.47305
H     3.16973  -0.28309  -0.04456
