16
Generated by autodE on: 2022-07-27. E = -326.052026 Ha
C     0.56196   1.85938   1.70612
N     0.25881   1.22306   0.59792
C     0.08228  -0.11431   0.38083
C     0.25313  -1.03055   1.54165
C    -0.26254  -0.57000  -0.92536
C    -0.43025   0.44438  -2.05167
O    -0.44108  -1.78568  -1.17545
H     0.70784   1.30715   2.63259
H     0.65964   2.94261   1.66323
H     0.13813   1.82062  -0.22326
H     0.08658  -2.06426   1.21545
H     1.26718  -0.95868   1.97908
H    -0.45797  -0.80141   2.35833
H     0.47422   1.05628  -2.20325
H    -0.63839  -0.10288  -2.98012
H    -1.27022   1.13196  -1.85681
