53
Generated by autodE on: 2022-06-01. E = -1093.781673 Ha. Imaginary frequency = -303.0 cm-1
C     0.74244   0.36177   6.30297
N     0.54016   0.18579   4.87914
C     0.12537  -0.97754   4.36709
O    -0.13443  -1.96271   5.07038
C     0.03485  -1.09672   2.82110
C    -0.08506   0.27025   2.10713
O     0.70873   1.19400   2.35498
N    -1.04137   0.39124   1.18088
C    -1.20843   1.60190   0.40091
C     1.39464  -1.73521   2.38043
C     1.56300  -2.07628   0.89021
C     1.18490  -3.49405   0.40601
C    -0.21799  -3.72252  -0.18061
C    -1.36644  -4.03981   0.80612
C    -1.18146  -5.38487   1.52538
C    -1.49911  -2.93626   1.76946
C    -1.08830  -1.99523   2.46628
C    -2.85978  -1.11937   3.64938
N    -3.77667  -1.61297   2.82039
C    -3.92584  -2.94903   2.58948
C    -3.72516  -3.89388   3.73476
C    -4.48583  -3.37618   1.33668
C    -4.78872  -2.33941   0.26827
O    -4.65070  -4.58552   1.07585
H    -0.17382   0.12044   6.86341
H     1.01117   1.40732   6.49771
H     1.54894  -0.28779   6.68134
H     0.80204   0.91467   4.21389
H    -1.64375  -0.41054   1.01425
H    -1.40755   2.46734   1.05207
H    -2.05614   1.46841  -0.28202
H    -0.30515   1.82171  -0.19004
H     2.17796  -1.02060   2.67485
H     1.53749  -2.64031   2.99032
H     2.63678  -1.94900   0.68010
H     1.05608  -1.32269   0.26397
H     1.38438  -4.22146   1.21157
H     1.89630  -3.74878  -0.39609
H    -0.50460  -2.83923  -0.77661
H    -0.16894  -4.56880  -0.88713
H    -2.28396  -4.13032   0.20218
H    -1.03386  -6.18956   0.78763
H    -0.31015  -5.36693   2.19766
H    -2.06854  -5.63081   2.12502
H    -2.74022  -0.03633   3.68087
H    -2.56615  -1.70318   4.51705
H    -4.05925  -0.98825   2.06651
H    -4.01945  -4.90407   3.42569
H    -2.68424  -3.92827   4.08924
H    -4.35367  -3.59486   4.59365
H    -3.86287  -1.84698  -0.07299
H    -5.47404  -1.55479   0.62801
H    -5.25325  -2.84535  -0.58761
