18
Generated by autodE on: 2022-06-01. E = -831.692096 Ha
C    -0.96676  -1.60404   0.64554
C    -0.61841  -0.24481   0.10766
C     0.61839   0.24437  -0.10879
C     0.96668   1.60318  -0.64778
C     1.81917  -0.62865   0.21109
F     1.82761  -1.77333  -0.50330
F     2.97795  -0.00349  -0.05531
F     1.86427  -0.98205   1.51272
C    -1.81915   0.62879  -0.21076
F    -1.87028   0.97486  -1.51420
F    -2.97773   0.00745   0.06530
F    -1.82175   1.77746   0.49710
H    -0.08890  -2.21696   0.86470
H    -1.55861  -1.50475   1.56956
H    -1.59534  -2.14705  -0.07837
H     1.56880   1.50284  -1.56493
H     1.58516   2.15178   0.08071
H     0.08859   2.21130  -0.87907
