24
Generated by autodE on: 2022-06-01. E = -721.557618 Ha
C     0.29286   3.36030   1.67577
O     0.24961   2.31602   0.69268
C    -0.10704   1.10221   1.12396
O    -0.49473   0.89269   2.25965
C     0.02387   0.06614   0.06575
C     1.28371  -0.09020  -0.64578
O     1.49681  -0.86454  -1.57453
O     2.25213   0.70221  -0.14977
C     3.52542   0.64340  -0.80073
N    -1.02258  -0.78867  -0.14627
C    -2.29905  -0.49615   0.55569
C    -0.99066  -1.85383  -0.94869
C    -2.10882  -2.67893  -1.16363
N    -2.98483  -3.41695  -1.39507
H     0.63748   4.25674   1.14756
H     0.99450   3.09950   2.48156
H    -0.70607   3.53039   2.10242
H     3.43562   0.92799  -1.85949
H     3.95167  -0.36831  -0.73227
H     4.16571   1.35909  -0.27180
H    -2.19888  -0.77461   1.60926
H    -3.10331  -1.06783   0.08662
H    -2.51958   0.57284   0.47038
H    -0.06185  -2.08002  -1.46727
