34
Generated by autodE on: 2022-06-26. E = -952.722579 Ha
C    -4.14771   1.88287   0.90827
O    -3.16584   0.88925   0.59913
C    -2.14964   1.27746  -0.19324
O    -2.10851   2.39248  -0.70273
C    -1.14193   0.24646  -0.39133
C    -0.93244  -0.89441   0.50819
O    -0.45829  -1.96668   0.16042
O    -1.27694  -0.64206   1.77873
C    -1.07888  -1.70625   2.71680
N    -0.29259   0.37521  -1.47046
C    -0.81696   0.89346  -2.75539
C     0.99265   0.00204  -1.42306
C     1.69855  -0.16077  -2.64786
N     2.33768  -0.29560  -3.61331
C     1.75295  -0.22175  -0.18189
C     1.59724   0.63839   0.92361
C     2.33556   0.42081   2.08290
C     3.22982  -0.65568   2.16218
C     3.39621  -1.50381   1.06488
C     2.66500  -1.28788  -0.10452
H    -4.66882   2.21357  -0.00242
H    -3.68353   2.75367   1.39478
H    -4.85684   1.40319   1.59340
H    -1.64389  -2.60167   2.42032
H    -1.44441  -1.33030   3.67949
H    -0.00937  -1.95542   2.78838
H    -1.90539   0.95046  -2.70687
H    -0.53254   0.19148  -3.54966
H    -0.38743   1.88090  -2.96250
H     0.89865   1.47480   0.87194
H     2.21555   1.09666   2.93226
H     3.79825  -0.82701   3.07897
H     4.09450  -2.34173   1.11829
H     2.78788  -1.95832  -0.95743
