34
Generated by autodE on: 2022-07-28. E = -952.721332 Ha
C    -0.47361   4.66646  -1.99028
O    -0.20104   3.69758  -0.97502
C    -0.50654   2.41888  -1.27321
O    -1.03636   2.11928  -2.34224
C    -0.15830   1.46286  -0.24129
C     0.64469   1.76670   0.93179
O     1.27151   2.79755   1.13479
O     0.62267   0.76640   1.85382
C     1.51756   0.89567   2.95891
N    -0.65366   0.15160  -0.40070
C    -2.10200  -0.03728  -0.59493
C     0.16517  -0.88068  -0.27097
C     1.57059  -0.62234  -0.40509
N     2.72029  -0.50536  -0.53702
C    -0.22757  -2.25669   0.04054
C    -1.25027  -2.53026   0.97095
C    -1.57832  -3.84964   1.27281
C    -0.89836  -4.90461   0.65390
C     0.13003  -4.63893  -0.25751
C     0.47661  -3.32364  -0.55446
H    -1.55003   4.71005  -2.21416
H     0.07603   4.43468  -2.91488
H    -0.13610   5.62855  -1.58593
H     1.38599  -0.01124   3.56148
H     2.55860   0.96474   2.60894
H     1.27747   1.78437   3.56080
H    -2.61316   0.07236   0.37041
H    -2.30083  -1.02255  -1.02805
H    -2.44569   0.74342  -1.27881
H    -1.76127  -1.71389   1.47986
H    -2.36420  -4.05599   2.00209
H    -1.16288  -5.93737   0.89137
H     0.66678  -5.46099  -0.73497
H     1.28347  -3.11629  -1.26001
