60
Generated by autodE on: 2022-06-26. E = -1642.157410 Ha. Imaginary frequency = -248.9 cm-1
C    -1.21433   4.74652  -1.26855
O    -0.84049   3.64842  -0.42569
C    -1.49836   2.49804  -0.60712
O    -2.41304   2.37474  -1.39828
C    -0.89921   1.41192   0.21751
C    -0.21945   1.95307   1.46480
O     0.85150   2.51080   1.52777
O    -1.03357   1.80205   2.51423
C    -0.52775   2.24152   3.78532
N    -1.61854   0.22818   0.37100
C    -3.06739   0.17370   0.09170
C    -0.94325  -0.89963   0.78963
C     0.03709  -0.71494   1.82315
N     0.82027  -0.61427   2.67685
C    -1.47249  -2.27356   0.70037
C    -0.98972  -3.25595   1.59535
C    -1.39072  -4.58517   1.48997
C    -2.28329  -4.97525   0.48760
C    -2.76306  -4.01974  -0.41249
C    -2.36328  -2.68891  -0.31546
C     0.71328  -0.72649  -0.96129
C     0.04905  -1.63930  -1.95050
C     1.83546  -1.33769  -0.21912
O     1.95988  -2.56649  -0.16287
C     2.81052  -0.45555   0.44957
O     3.79682  -0.93853   1.23583
C     3.69144  -2.17041   1.95564
C     2.82695   0.89486   0.20132
O     3.80624   1.60248   0.79166
C     3.90463   3.02939   0.75565
C     1.87873   1.48977  -0.76703
O     2.09746   2.58588  -1.27327
C     0.68414   0.68182  -1.19319
C     0.10845   1.14980  -2.50982
H    -0.54386   5.57062  -1.00035
H    -1.08344   4.47631  -2.32615
H    -2.26104   5.03026  -1.08858
H    -1.31344   2.01553   4.51474
H     0.39372   1.69493   4.03107
H    -0.32385   3.32116   3.76104
H    -3.51306   1.11538   0.42678
H    -3.49615  -0.64094   0.68353
H    -3.29372   0.02760  -0.96951
H    -0.29664  -2.97851   2.38887
H    -1.00313  -5.31947   2.19916
H    -2.59982  -6.01733   0.40581
H    -3.45139  -4.31177  -1.20833
H    -2.73541  -1.98605  -1.05410
H     0.62227  -1.63423  -2.89507
H     0.01954  -2.67106  -1.58645
H    -0.96810  -1.31121  -2.19348
H     4.43126  -2.09686   2.76522
H     2.69158  -2.29941   2.38997
H     3.93099  -3.03061   1.31682
H     4.64947   3.28050   1.52309
H     4.25474   3.37976  -0.22449
H     2.94843   3.50575   1.00146
H     0.13071   2.24129  -2.58966
H    -0.91781   0.79941  -2.65936
H     0.72291   0.74404  -3.33095
