23
Generated by autodE on: 2022-06-19. E = -351.521380 Ha
C    -1.03304   3.12063  -1.86919
C    -0.19341   2.22912  -1.29819
C     1.29949   2.43637  -1.31627
C    -0.72946   1.03583  -0.64633
C     0.00323   0.06884  -0.03885
C    -0.58191  -1.09599   0.59332
C     0.07589  -2.10512   1.21835
C     1.56912  -2.18593   1.36360
C    -0.67924  -3.25139   1.82984
H    -0.65931   4.02161  -2.36359
H    -2.11655   2.96738  -1.85436
H     1.81092   1.59891  -1.81929
H     1.70643   2.48352  -0.29245
H     1.56618   3.36681  -1.83708
H    -1.82118   0.93214  -0.66062
H     1.09217   0.16486  -0.01998
H    -1.67643  -1.15492   0.55470
H     2.10555  -1.34407   0.90736
H     1.94638  -3.11966   0.91029
H     1.84657  -2.23183   2.43162
H    -0.46263  -3.33082   2.91041
H    -1.76667  -3.14976   1.69953
H    -0.36195  -4.21145   1.38439
