19
Generated by autodE on: 2022-06-19. E = -680.983307 Ha
C    -3.52780  -1.13899   0.40835
O    -2.27404  -0.46820   0.22246
C    -1.17226  -1.23268   0.26699
O    -1.19036  -2.43407   0.45348
C     0.04279  -0.42903   0.06223
N    -0.08624   0.86418  -0.13119
C    -0.20177   2.01913  -0.30303
C    -0.33573   3.35525  -0.49990
N    -0.45133   4.50758  -0.66940
C     1.39607  -1.00558   0.06634
O     1.65244  -2.18160   0.23888
O     2.32678  -0.06268  -0.14591
C     3.69214  -0.50117  -0.16292
H    -4.29738  -0.36160   0.33869
H    -3.68033  -1.89555  -0.37500
H    -3.56431  -1.62224   1.39545
H     4.29326   0.39657  -0.34748
H     3.96550  -0.94943   0.80334
H     3.85127  -1.23629  -0.96513
