42
Generated by autodE on: 2022-06-19. E = -1032.499604 Ha. Imaginary frequency = -390.9 cm-1
C    -4.30303  -2.50730  -0.88936
O    -2.95030  -2.19964  -0.52285
C    -2.78606  -1.29047   0.44587
O    -3.70228  -0.74706   1.02967
C    -1.35233  -1.00097   0.66679
C    -0.88421  -0.18410   1.80995
O    -1.60000   0.48739   2.52581
O     0.44735  -0.23864   1.92135
C     1.04797   0.59252   2.92468
C    -1.31621   0.82847  -0.99139
C    -0.28300   0.49126  -1.85021
C    -0.61265  -0.01286  -3.24170
C     1.10294   0.94208  -1.62201
C     1.54494   1.71058  -0.59745
C     2.93583   2.06326  -0.40892
C     3.45060   2.86541   0.55807
C     4.92925   3.11940   0.63719
C     2.63361   3.56244   1.60840
C     0.22093  -1.64060  -1.01593
C     1.16593  -2.38970  -1.70762
N     1.95496  -2.89756  -2.40251
N    -0.45072  -1.70186  -0.00738
H    -4.81380  -1.60709  -1.26075
H    -4.85296  -2.91198  -0.02764
H    -4.23464  -3.25963  -1.68333
H     0.79558   0.21840   3.92773
H     2.12878   0.53128   2.75629
H     0.70294   1.62932   2.82237
H    -1.16429   1.50300  -0.14889
H    -2.35030   0.66641  -1.30123
H     0.18830  -0.64454  -3.65433
H    -1.55043  -0.58707  -3.24445
H    -0.73376   0.84329  -3.92797
H     1.83534   0.58557  -2.35556
H     0.82463   2.08042   0.13701
H     3.63759   1.62596  -1.12928
H     5.14671   4.19901   0.54854
H     5.48570   2.58587  -0.14726
H     5.32628   2.80840   1.62027
H     2.93373   3.22570   2.61622
H     2.82809   4.64891   1.57765
H     1.55296   3.40635   1.50273
