56
Generated by autodE on: 2022-10-22. E = -1559.118191 Ha
C     2.06857  -4.33685   1.06855
O     3.17163  -3.50162   1.39529
C     3.93364  -3.73273   2.57085
C     3.11108  -3.26036   3.80392
F     2.58297  -2.03619   3.61158
F     3.86939  -3.20563   4.90921
F     2.07790  -4.07870   4.07941
C     4.22755  -5.22724   2.75332
C     5.09474  -5.86115   1.64952
C     6.39741  -6.45803   2.18661
C     7.51365  -5.46125   2.50025
C     7.15926  -4.25864   3.36228
F     6.47622  -4.65047   4.49329
F     8.34942  -3.76075   3.86435
C     6.45924  -3.09191   2.68462
C     5.16597  -2.83001   2.41401
C     5.04648  -1.35248   1.96778
C     4.09524  -1.01101   0.82191
C     4.78091  -0.47644   3.24880
C     3.88436   0.72513   3.14488
O     5.39218  -0.71752   4.27565
N     6.43249  -1.06271   1.54528
C     6.87454   0.31650   1.46837
C     7.35113  -1.93255   2.26316
C     8.53470  -2.31786   1.38566
C     9.84688  -2.07102   1.80220
C    10.93022  -2.42625   0.99191
C    10.70777  -3.03459  -0.24682
C     9.39704  -3.28064  -0.67278
C     8.31880  -2.92074   0.13827
H     2.37951  -5.36427   0.81984
H     1.61643  -3.88688   0.17363
H     1.30901  -4.37028   1.86434
H     3.25751  -5.73642   2.79998
H     4.67452  -5.37779   3.73928
H     5.31038  -5.13049   0.85318
H     4.51778  -6.66582   1.16972
H     6.80728  -7.16729   1.45059
H     6.17010  -7.04938   3.08900
H     7.94054  -5.06165   1.56980
H     8.32730  -5.97768   3.03300
H     4.28221  -1.67870  -0.02744
H     4.27416   0.02218   0.49248
H     3.04468  -1.10240   1.11255
H     2.87035   0.43544   2.83547
H     3.85078   1.23843   4.11463
H     4.26893   1.41363   2.37642
H     7.85349   0.34915   0.96653
H     6.99654   0.80151   2.45918
H     6.17604   0.91671   0.86916
H     7.75126  -1.45189   3.17789
H    10.01953  -1.59972   2.77302
H    11.95033  -2.22578   1.32858
H    11.55262  -3.31470  -0.88070
H     9.21593  -3.75612  -1.63990
H     7.29608  -3.11326  -0.19255
