29
Generated by autodE on: 2022-10-26. E = -596.529628 Ha
C    -3.24579   1.82131   2.41662
C    -2.00635   1.24761   1.73789
O    -0.91023   1.36986   2.36060
C    -2.17121   0.61134   0.47936
C    -3.51839   0.55080  -0.19425
N    -1.09318   0.00077  -0.18630
C    -1.44456  -0.84380  -1.34679
C     0.17633   0.08045   0.19766
C     1.36402  -0.43399  -0.46312
C     2.46415  -0.72263   0.38165
C     3.67260  -1.18123  -0.13562
C     3.83001  -1.34264  -1.51738
C     2.76825  -1.02611  -2.37108
C     1.55134  -0.57570  -1.85888
H    -4.05463   1.08092   2.51628
H    -3.65480   2.68025   1.85937
H    -2.95319   2.16574   3.41774
H    -4.03025  -0.42391  -0.08623
H    -4.18759   1.30666   0.23054
H    -3.45690   0.76448  -1.27249
H    -0.65357  -1.57764  -1.51472
H    -1.58045  -0.23266  -2.24819
H    -2.37354  -1.37909  -1.13280
H     0.31100   0.60036   1.14396
H     2.34845  -0.59029   1.46005
H     4.49896  -1.41072   0.54124
H     4.77813  -1.69890  -1.92644
H     2.89064  -1.12078  -3.45270
H     0.76139  -0.29676  -2.55444
