56
Generated by autodE on: 2022-10-22. E = -1559.020903 Ha. Imaginary frequency = -139.8 cm-1
C     2.41755  -3.78610   0.51701
O     3.53434  -3.16272   1.14282
C     3.89079  -3.57630   2.45201
C     2.81675  -3.08496   3.46626
F     2.31379  -1.88974   3.11882
F     1.76895  -3.92664   3.55171
F     3.32651  -2.96906   4.70302
C     4.04957  -5.11174   2.58854
C     5.09570  -5.72776   1.63544
C     6.38163  -6.27765   2.28332
C     7.57107  -5.32958   2.47308
C     7.37311  -4.19728   3.46573
F     6.94397  -4.72131   4.67675
F     8.60054  -3.64002   3.75894
C     6.39918  -3.18895   3.02548
C     5.21098  -2.97430   2.75592
C     5.38756  -0.46519   2.22962
C     4.19179   0.02311   1.45144
C     5.46244  -0.15792   3.65211
C     4.24599   0.46217   4.31629
O     6.47141  -0.33713   4.36206
N     6.53599  -0.78155   1.51015
C     6.41535  -0.77710   0.04486
C     7.63070  -1.30234   2.08802
C     8.80489  -1.83452   1.39281
C    10.06630  -1.55109   1.95732
C    11.23516  -2.07722   1.41025
C    11.17114  -2.91981   0.29477
C     9.92640  -3.23364  -0.26036
C     8.75537  -2.70091   0.28026
H     2.59647  -4.85525   0.31966
H     2.28506  -3.26987  -0.44331
H     1.49114  -3.67836   1.10333
H     3.06831  -5.57509   2.42057
H     4.31119  -5.31354   3.63800
H     5.35265  -5.00883   0.84079
H     4.60851  -6.57067   1.12282
H     6.75479  -7.09522   1.64680
H     6.13233  -6.74146   3.25183
H     7.86662  -4.87654   1.51600
H     8.43475  -5.90569   2.84335
H     3.30416   0.03001   2.08785
H     4.33381   1.05343   1.07556
H     3.95601  -0.61935   0.59630
H     3.35073  -0.16588   4.22663
H     4.00767   1.44028   3.86787
H     4.47883   0.60504   5.37949
H     7.41063  -0.77453  -0.40398
H     5.89285   0.12854  -0.27589
H     5.85428  -1.65948  -0.29538
H     7.74112  -1.05771   3.13764
H    10.11812  -0.90746   2.83851
H    12.20112  -1.83460   1.85950
H    12.08517  -3.33883  -0.13233
H     9.86372  -3.90959  -1.11641
H     7.79594  -2.99385  -0.14465
