46
Generated by autodE on: 2022-06-18. E = -848.635108 Ha
C    -3.04622  -2.03971  -1.93841
N    -2.17564  -1.40279  -0.97348
C    -2.62147  -0.50199  -0.08448
O    -3.81556  -0.17320  -0.01970
C    -1.55478   0.15716   0.81078
C    -2.16275   0.40617   2.19989
C    -1.08613   1.46284   0.10133
C    -2.02203   2.65792   0.21336
C     0.30993   1.68777   0.69367
C     1.19094   2.63896  -0.10509
C     0.88546   0.24708   0.93414
C     1.51966   0.21457   2.33499
C     1.90473  -0.15577  -0.14481
C     1.46598  -0.52332  -1.42809
C     2.36920  -0.84495  -2.44318
C     3.74602  -0.81075  -2.19793
C     4.20027  -0.44646  -0.92883
C     3.28941  -0.12205   0.08339
N    -0.31363  -0.62032   0.82781
C    -0.29224  -1.86372   1.56861
H    -3.87472  -2.56710  -1.43912
H    -2.46535  -2.76671  -2.51965
H    -3.48632  -1.30427  -2.63192
H    -1.18136  -1.61017  -0.94104
H    -2.38728  -0.54837   2.69871
H    -1.46818   0.97040   2.83733
H    -3.10214   0.96728   2.12373
H    -0.96582   1.21488  -0.96651
H    -3.03187   2.40608  -0.14388
H    -2.10490   3.01336   1.25213
H    -1.65017   3.49527  -0.39688
H     0.16782   2.12971   1.69318
H     0.75864   3.65164  -0.10721
H     1.29952   2.31363  -1.15079
H     2.19982   2.70960   0.33085
H     0.74726   0.38501   3.09759
H     2.26697   1.01473   2.43739
H     2.01775  -0.74128   2.55156
H     0.39803  -0.54946  -1.63696
H     1.99476  -1.12407  -3.43141
H     4.45592  -1.06559  -2.98855
H     5.27236  -0.41471  -0.71835
H     3.67837   0.16416   1.06033
H    -1.16193  -2.48004   1.29593
H     0.61030  -2.43652   1.30167
H    -0.30249  -1.74764   2.66922
