12
Generated by autodE on: 2022-06-18. E = -157.300301 Ha
C    -1.96026   0.01127  -0.12339
C    -0.54915  -0.12714   0.36188
C     0.54915   0.12722  -0.36185
C     1.96026  -0.01133   0.12337
H    -2.50425  -0.94735  -0.05158
H    -2.00080   0.35057  -1.17043
H    -2.52668   0.73184   0.49312
H    -0.42449  -0.46533   1.40018
H     0.42449   0.46543  -1.40014
H     2.00079  -0.34994   1.17063
H     2.52635  -0.73256  -0.49270
H     2.50458   0.94704   0.05081
