34
Generated by autodE on: 2022-07-27. E = -691.249733 Ha
C    -2.38669   1.17029  -1.80949
N    -3.17739   0.09904  -1.21742
C    -3.08836  -0.26184   0.12694
O    -4.15491  -0.56852   0.72449
C    -1.82024  -0.24202   0.78971
C    -1.77656  -0.25368   2.28988
N    -0.60761  -0.27803   0.08618
C    -0.45996  -1.30949  -0.95741
C     0.41003   0.51821   0.41289
C     0.12942   1.76727   1.17297
C     1.79953   0.18063   0.05426
C     2.32273  -1.10604   0.29537
C     3.64580  -1.40872  -0.02687
C     4.47379  -0.43603  -0.59647
C     3.96974   0.84802  -0.83128
C     2.65059   1.15769  -0.50119
H    -2.23638   2.01391  -1.11332
H    -2.92143   1.54906  -2.69142
H    -1.39529   0.83657  -2.15312
H    -4.15109   0.09828  -1.50813
H    -2.61247  -0.86274   2.66615
H    -0.83649  -0.70136   2.65075
H    -1.86533   0.73884   2.77364
H    -1.42014  -1.40625  -1.47323
H     0.31773  -1.02356  -1.67430
H    -0.21169  -2.27590  -0.49947
H     0.89644   2.52378   0.95983
H     0.13258   1.60854   2.26556
H    -0.87064   2.14924   0.90824
H     1.69418  -1.86696   0.75990
H     4.03458  -2.40942   0.17588
H     5.50903  -0.67512  -0.85035
H     4.60870   1.61457  -1.27593
H     2.26801   2.16112  -0.69712
