34
Generated by autodE on: 2022-06-18. E = -691.254543 Ha
C    -4.25917   1.24512   0.95495
N    -3.21249   0.26203   0.78291
C    -2.33763   0.35007  -0.27882
O    -2.57334   1.19300  -1.18574
C    -1.20562  -0.53842  -0.25963
C    -0.86256  -1.35892   0.94513
N    -0.31138  -0.49514  -1.33176
C    -0.87005  -0.54453  -2.69819
C     1.01511  -0.59074  -1.19688
C     1.83824  -1.03678  -2.37084
C     1.69157  -0.19651   0.04763
C     2.87205  -0.84564   0.46629
C     3.56739  -0.41700   1.59852
C     3.11310   0.68151   2.33329
C     1.94562   1.34112   1.92667
C     1.23649   0.90198   0.81185
H    -3.86689   2.26809   1.10508
H    -4.92248   1.27561   0.07719
H    -4.86145   0.97486   1.83260
H    -2.92466  -0.25128   1.60586
H    -1.76189  -1.86817   1.33105
H    -0.13416  -2.14068   0.68198
H    -0.42249  -0.79069   1.78932
H    -0.44621   0.25446  -3.32057
H    -0.62913  -1.51736  -3.14894
H    -1.95189  -0.42871  -2.64206
H     1.52201  -2.02436  -2.74733
H     1.75156  -0.33047  -3.21313
H     2.89849  -1.09345  -2.10315
H     3.24280  -1.70673  -0.09244
H     4.47160  -0.94741   1.90687
H     3.65873   1.01990   3.21705
H     1.58236   2.20583   2.48739
H     0.32538   1.42322   0.51353
