26
Generated by autodE on: 2022-07-27. E = -557.216957 Ha
C    -1.26766  -3.68934   0.72139
C    -0.61266  -2.41156   0.35458
N    -1.05732  -1.25909   0.77727
C    -0.61475   0.04275   0.57589
C    -1.24814   1.07970   1.31851
C    -2.36333   0.71741   2.29717
O    -0.92852   2.28916   1.20485
C     0.46367   0.30636  -0.39475
C     1.53620   1.15995  -0.06456
C     2.54385   1.44302  -0.98865
C     2.51343   0.87495  -2.26641
C     1.45698   0.02518  -2.61148
C     0.44553  -0.25252  -1.69025
H    -2.12464  -3.53258   1.39397
H    -0.54554  -4.36308   1.21448
H    -1.61987  -4.21767  -0.18227
H     0.27292  -2.41173  -0.28257
H    -1.87863  -1.32545   1.38461
H    -2.77695   1.65028   2.70137
H    -3.18437   0.15626   1.81984
H    -1.98628   0.11002   3.13685
H     1.57331   1.60564   0.92980
H     3.36453   2.10692  -0.70485
H     3.30512   1.09263  -2.98723
H     1.41437  -0.41873  -3.60936
H    -0.38033  -0.90220  -1.98883
