52
Generated by autodE on: 2022-06-03. E = -1300.857617 Ha. Imaginary frequency = -168.6 cm-1
C    -1.49584   3.40598   2.00669
N    -1.47760   2.12763   1.32912
C    -0.80273   1.95396   0.17947
O    -0.26947   2.90925  -0.42003
C    -0.69061   0.59073  -0.38199
C    -0.18778   0.47366  -1.84383
C    -1.42486   0.67134  -2.73613
C    -2.14745  -0.44375  -2.57443
C    -1.33860  -1.29644  -1.58174
O     0.00327  -0.94646  -1.94886
C    -1.43644  -0.58481  -0.20160
C    -2.55140  -0.84405   0.69565
O    -2.76815  -0.30572   1.78088
O    -3.34778  -1.81760   0.22390
C    -4.45114  -2.21325   1.04901
C    -0.02197  -1.95819   1.09473
C    -0.31159  -3.37964   0.76575
N     1.09274  -1.39058   0.64182
C     1.49785  -0.07415   0.70863
C     1.28876   0.74798   1.90935
C     0.63611   0.17539   3.14696
O     1.68291   1.91978   1.94279
C     2.58531   0.28911  -0.23433
C     2.76793   1.61742  -0.67312
C     3.78410   1.94046  -1.57396
C     4.64736   0.95539  -2.06233
C     4.48142  -0.36476  -1.63515
C     3.46868  -0.69189  -0.73236
H    -1.91526   4.19879   1.36684
H    -2.11339   3.31958   2.90973
H    -0.47880   3.71151   2.30204
H    -1.93025   1.31326   1.75074
H     0.71477   1.03321  -2.09698
H    -1.65421   1.57827  -3.29452
H    -3.12942  -0.70300  -2.96877
H    -1.50134  -2.37730  -1.59116
H    -4.09067  -2.59262   2.01608
H    -4.96798  -3.00805   0.49898
H    -5.13002  -1.36537   1.21901
H    -0.49565  -1.52792   1.96912
H     0.07500  -4.04060   1.56161
H    -1.39793  -3.54065   0.71043
H     0.14809  -3.67865  -0.18821
H     1.49148  -1.88900  -0.15403
H     0.88671   0.83714   3.98612
H    -0.45787   0.15987   3.04021
H     0.97299  -0.84771   3.36899
H     2.08630   2.38946  -0.33053
H     3.89345   2.97629  -1.90478
H     5.44099   1.21313  -2.76738
H     5.15099  -1.14906  -1.99619
H     3.39491  -1.72890  -0.39759
