47
Generated by autodE on: 2022-06-18. E = -795.380844 Ha
C     1.46463  -0.06743   2.49117
C     0.70443   0.58982   1.60245
C     0.01202   1.87691   1.96873
C     0.48410   0.11864   0.18217
C     1.62807  -0.68882  -0.47693
C     2.75132   0.19458  -0.93005
C     4.02275   0.21698  -0.48927
C     5.01280   1.21320  -1.03490
C     4.58143  -0.70002   0.56689
C     0.91508  -1.45047  -1.62132
N    -0.50829  -1.14668  -1.48843
C    -1.38478  -2.13152  -2.08052
C    -0.77709  -0.77522  -0.08243
C    -0.80512  -1.99537   0.85079
C    -2.06181   0.04885   0.01083
C    -2.32133   1.04074  -0.95048
C    -3.44823   1.85850  -0.86067
C    -4.35043   1.70115   0.19794
C    -4.11048   0.71446   1.15609
C    -2.97894  -0.10443   1.06088
H     1.58975   0.31160   3.51022
H     1.98303  -0.99627   2.24576
H    -1.07767   1.79672   1.82664
H     0.20684   2.16436   3.01248
H     0.35037   2.69569   1.31023
H     0.32657   1.01706  -0.43466
H     2.00088  -1.42558   0.24291
H     2.46900   0.92356  -1.70176
H     4.56032   1.87815  -1.78572
H     5.87452   0.70038  -1.49831
H     5.42748   1.83817  -0.22371
H     3.88987  -1.49883   0.86388
H     5.51590  -1.16850   0.21241
H     4.84664  -0.12721   1.47314
H     1.28016  -1.14305  -2.61686
H     1.11849  -2.53763  -1.53562
H    -2.43746  -1.83978  -1.94341
H    -1.19525  -2.19518  -3.16479
H    -1.25452  -3.15431  -1.66657
H    -0.82091  -1.69876   1.90748
H     0.08661  -2.62055   0.70030
H    -1.68972  -2.61910   0.65831
H    -1.62474   1.16616  -1.77961
H    -3.62410   2.62385  -1.62098
H    -5.23330   2.34077   0.27147
H    -4.80686   0.57618   1.98700
H    -2.81498  -0.86030   1.82824
