23
Generated by autodE on: 2022-06-18. E = -351.521382 Ha
C     3.66948  -0.89269   0.18832
C     2.58388  -0.09957   0.05335
C     2.72069   1.38386  -0.17644
C     1.24386  -0.67823   0.12844
C     0.07852   0.00567   0.00548
C    -1.22577  -0.61977   0.08572
C    -2.43297  -0.01154  -0.03394
C    -2.62258   1.45873  -0.27790
C    -3.70613  -0.80236   0.07364
H     4.68361  -0.48689   0.13553
H     3.56634  -1.96936   0.35520
H     3.77694   1.68540  -0.21396
H     2.22499   1.95730   0.62448
H     2.24031   1.68555  -1.12205
H     1.19896  -1.76077   0.29834
H     0.11493   1.08517  -0.16427
H    -1.22126  -1.70232   0.26162
H    -3.20040   1.62024  -1.20508
H    -1.68189   2.01829  -0.35989
H    -3.21977   1.90707   0.53578
H    -3.51827  -1.87115   0.25323
H    -4.33888  -0.41620   0.89300
H    -4.30746  -0.70322  -0.84801
