24
Generated by autodE on: 2022-06-18. E = -443.787630 Ha
C    -3.21152   0.95233   0.29681
N    -2.02637   0.32036   0.37247
C    -1.97917  -0.76394   1.37759
C    -0.96690   0.55798  -0.44590
C    -1.22658   1.50606  -1.57005
C     0.37173   0.02960  -0.20299
C     1.20608  -0.30571  -1.30217
C     2.50103  -0.78538  -1.11976
C     3.02648  -0.95367   0.16808
C     2.23112  -0.61392   1.26734
C     0.93732  -0.12210   1.08965
H    -3.34350   1.79885  -0.36855
H    -4.01960   0.59634   0.93013
H    -2.96476  -1.24309   1.40310
H    -1.22736  -1.50777   1.10121
H    -1.75512  -0.35786   2.37191
H    -0.36197   1.58759  -2.23867
H    -2.11120   1.20022  -2.16414
H    -1.45271   2.52753  -1.20023
H     0.81663  -0.20695  -2.31743
H     3.10481  -1.04236  -1.99431
H     4.04102  -1.33278   0.31038
H     2.62899  -0.71228   2.28104
H     0.37150   0.18392   1.96934
