24
Generated by autodE on: 2022-07-27. E = -443.787628 Ha
C     2.62471  -2.10083  -0.08090
N     1.61880  -1.25852  -0.37792
C     1.61724  -0.78419  -1.77898
C     0.61602  -0.91684   0.47453
C     0.60529  -1.64902   1.77611
C    -0.33016   0.16274   0.21210
C     0.01423   1.36997  -0.44971
C    -0.92449   2.38092  -0.65988
C    -2.23880   2.24597  -0.20070
C    -2.59576   1.07558   0.48176
C    -1.66556   0.05868   0.68418
H     2.75493  -2.46953   0.93090
H     3.30293  -2.38614  -0.88046
H     1.97958  -1.60180  -2.41292
H     2.28557   0.07825  -1.89398
H     0.60439  -0.51427  -2.08909
H     1.50442  -1.41685   2.38352
H     0.62083  -2.74726   1.62552
H    -0.27057  -1.38671   2.38052
H     1.04134   1.53685  -0.77338
H    -0.61599   3.29615  -1.17247
H    -2.96972   3.04167  -0.36156
H    -3.61671   0.94856   0.85186
H    -1.98023  -0.85112   1.19951
