47
Generated by autodE on: 2022-06-18. E = -795.305984 Ha. Imaginary frequency = -254.9 cm-1
C     1.16227  -0.14819   3.35645
C     0.62286   0.70208   2.43691
C    -0.54462   1.58097   2.82726
C     1.03611   0.78491   1.05929
C     2.07074   0.04607   0.45996
C     2.68300   0.54528  -0.78054
C     3.81814   0.11300  -1.37337
C     4.32339   0.74250  -2.64315
C     4.65167  -1.02617  -0.85288
C     1.15375  -1.78214  -0.19298
N    -0.05221  -1.32797  -0.64608
C    -0.06303  -0.88153  -2.04264
C    -1.04510  -0.99806   0.22394
C    -1.13086  -1.79338   1.48765
C    -2.18831  -0.16240  -0.18807
C    -2.03173   1.06522  -0.87268
C    -3.13123   1.84790  -1.22196
C    -4.42852   1.44123  -0.89020
C    -4.60685   0.23702  -0.20232
C    -3.50739  -0.54963   0.14371
H     0.78474  -0.17956   4.38199
H     2.00023  -0.80843   3.11675
H    -1.45435   1.28013   2.27955
H    -0.75925   1.52662   3.90466
H    -0.35598   2.63559   2.56513
H     0.54630   1.55028   0.45094
H     2.73565  -0.51107   1.12605
H     2.14373   1.36702  -1.26800
H     3.66872   1.55646  -2.98977
H     4.40116  -0.00623  -3.45286
H     5.34131   1.15198  -2.50887
H     4.27779  -1.44311   0.09172
H     4.68901  -1.84583  -1.59319
H     5.69819  -0.70804  -0.69725
H     1.82701  -2.17491  -0.95483
H     1.16010  -2.29242   0.76764
H    -1.08380  -0.88916  -2.43873
H     0.35886   0.12766  -2.14005
H     0.55513  -1.57274  -2.62793
H    -0.32173  -1.55202   2.20391
H    -1.06262  -2.87734   1.28033
H    -2.07313  -1.59721   2.01138
H    -1.03176   1.42712  -1.10601
H    -2.97057   2.79458  -1.74390
H    -5.28857   2.05916  -1.15836
H    -5.61240  -0.09906   0.06305
H    -3.67700  -1.49359   0.66390
