12
Generated by autodE on: 2022-06-19. E = -302.764666 Ha
C     2.53199   0.32788   0.03307
N     1.30242   0.00910  -0.17535
N     0.23610   0.45385   0.50906
C    -0.89828  -0.10408   0.00419
C    -2.16939   0.32115   0.68758
O    -0.92091  -0.90895  -0.95109
H     2.77368   1.02570   0.83740
H     3.29511  -0.11541  -0.60713
H     1.06041  -0.65584  -0.93739
H    -2.82522   0.81900  -0.04494
H    -2.70495  -0.57226   1.04625
H    -1.97774   1.00003   1.52818
