38
Generated by autodE on: 2022-06-19. E = -992.204219 Ha. Imaginary frequency = -322.4 cm-1
C     3.10273   2.33377   0.42302
O     2.32418   1.85574  -0.67899
C     1.52778   0.79013  -0.58089
C     1.42687  -0.12016   0.42943
O     2.24414  -0.10605   1.52096
C     1.61275   0.19763   2.77064
C     0.52713  -1.28911   0.29197
O     0.67405  -2.24995   1.04426
C    -0.51665  -1.29305  -0.77576
C    -1.16751  -2.61836  -1.04341
N    -2.26549  -0.50487   0.44279
C    -1.93574  -0.19075   1.73412
C    -2.06021   1.23271   2.23502
O    -1.56479  -1.09142   2.49560
N    -2.61897   0.45815  -0.42528
C    -1.68723   1.25065  -0.95880
C    -0.46334  -0.29324  -1.78533
C    -1.15488  -0.53915  -3.10534
C     0.72345   0.59459  -1.83691
O     1.03511   1.21295  -2.84621
H     3.89029   1.61885   0.69246
H     3.55359   3.27141   0.07400
H     2.46355   2.53598   1.29488
H     1.30675   1.25704   2.79598
H     0.73286  -0.43641   2.94583
H     2.36175   0.01799   3.55315
H    -2.14940  -2.49710  -1.51624
H    -0.53478  -3.20948  -1.72995
H    -1.28587  -3.18398  -0.11225
H    -2.84559   1.80593   1.72600
H    -1.09906   1.74773   2.07440
H    -2.25158   1.20434   3.31555
H    -3.38694   0.18473  -1.04375
H    -0.92961   1.65101  -0.28293
H    -1.98537   1.85342  -1.81957
H    -1.07720   0.34226  -3.75400
H    -2.21891  -0.77217  -2.95659
H    -0.70139  -1.39412  -3.63347
