54
Generated by autodE on: 2022-10-22. E = -1562.847816 Ha
C    -3.66222  -2.63064   1.44889
N    -2.98612  -1.59569   0.68958
C    -1.74128  -1.20214   0.99160
O    -1.11263  -1.65131   1.95120
C    -1.08214  -0.18238   0.00575
C    -1.97190   1.03616  -0.28600
C    -1.64009   1.90082  -1.34387
C    -2.35436   3.07940  -1.55562
C    -3.40461   3.43304  -0.70070
C    -3.72070   2.60060   0.37272
C    -3.00665   1.41465   0.58054
N     0.20459   0.31459   0.49112
C     0.23623   1.05698   1.73682
C     1.35703  -0.42225   0.00076
C     1.64627  -1.66985   0.87727
O     1.58743  -2.82946   0.53677
O     1.96179  -1.27707   2.11087
C     2.14110  -2.31024   3.09020
C     2.62683   0.41840  -0.12514
C     2.55219   1.80434  -0.31488
C     3.71681   2.55269  -0.49804
C     4.96549   1.92280  -0.50687
C     5.04277   0.53783  -0.33633
C     3.87832  -0.21090  -0.14731
C     0.84194  -0.79256  -1.41630
F     1.49586  -1.82049  -1.99065
F     1.00354   0.27437  -2.25090
C    -0.68180  -1.04467  -1.25389
F    -0.77612  -2.40179  -0.93730
O    -1.47198  -0.78681  -2.32518
C    -1.15042  -1.46097  -3.55271
H    -3.70669  -2.36601   2.51628
H    -4.68461  -2.74053   1.06746
H    -3.14044  -3.59756   1.35789
H    -3.43226  -1.22092  -0.14137
H    -0.81279   1.65605  -2.00644
H    -2.08444   3.72916  -2.39146
H    -3.96287   4.35747  -0.86618
H    -4.52217   2.87222   1.06357
H    -3.26071   0.79780   1.44157
H    -0.39333   1.95615   1.64851
H    -0.11409   0.46926   2.59936
H     1.26095   1.38572   1.94301
H     2.37938  -1.79726   4.02882
H     2.96527  -2.97715   2.79969
H     1.21416  -2.89135   3.19693
H     1.57878   2.29540  -0.32479
H     3.64719   3.63385  -0.63872
H     5.87577   2.50985  -0.64936
H     6.01236   0.03496  -0.34948
H     3.95265  -1.29383  -0.02503
H    -0.24996  -1.02873  -4.01239
H    -2.00898  -1.30437  -4.21682
H    -1.00840  -2.53754  -3.38342
