44
Generated by autodE on: 2022-10-22. E = -1071.738358 Ha
C    -0.89171   3.66514  -0.20805
N    -1.12780   2.27961   0.15385
C    -0.86843   1.28632  -0.70358
O    -0.55434   1.43244  -1.89048
C    -1.11797  -0.12975  -0.21293
C    -2.50174  -0.59771  -0.15032
C    -2.93607  -1.44804   0.88632
C    -4.26982  -1.84736   0.94931
C    -5.18253  -1.41032  -0.01694
C    -4.76102  -0.55645  -1.04283
C    -3.43308  -0.14093  -1.10584
N    -0.06092  -0.87547   0.02013
C    -0.10039  -2.34644   0.01479
C     1.14522  -0.24217   0.41740
C     1.03118   0.58860   1.57085
O    -0.00379   0.78711   2.23725
O     2.19617   1.19540   1.93138
C     2.15057   2.02698   3.08910
C     2.34992  -0.54993  -0.35482
C     3.64922  -0.60842   0.19920
C     4.75515  -0.91395  -0.59392
C     4.60648  -1.18488  -1.95939
C     3.32786  -1.13796  -2.52407
C     2.21994  -0.81873  -1.73865
H     0.18586   3.88785  -0.28566
H    -1.35912   3.88625  -1.17739
H    -1.33304   4.31557   0.55736
H    -1.10296   2.01480   1.14207
H    -2.23588  -1.76247   1.66044
H    -4.60108  -2.49693   1.76233
H    -6.22628  -1.72818   0.03466
H    -5.47238  -0.21075  -1.79579
H    -3.10282   0.52036  -1.90892
H    -0.93525  -2.70394  -0.59795
H    -0.19144  -2.72190   1.04275
H     0.84499  -2.70614  -0.40707
H     1.44583   2.86125   2.95159
H     1.85636   1.45525   3.98233
H     3.16721   2.41898   3.21968
H     3.78682  -0.42155   1.26298
H     5.74676  -0.95364  -0.13531
H     5.47610  -1.42842  -2.57413
H     3.19116  -1.33820  -3.59000
H     1.23419  -0.74956  -2.20322
