54
Generated by autodE on: 2022-10-22. E = -1562.736262 Ha. Imaginary frequency = -358.8 cm-1
C    -2.83470  -2.91940   2.16026
N    -2.34161  -1.92271   1.23279
C    -1.40818  -1.03139   1.61280
O    -1.06723  -0.87876   2.79096
C    -0.95400  -0.02674   0.57096
C    -2.00628   0.95009   0.19639
C    -1.91019   1.69607  -0.99785
C    -2.90803   2.59693  -1.36286
C    -4.03239   2.77457  -0.54872
C    -4.14220   2.04664   0.63928
C    -3.14163   1.14613   1.00813
N     0.35213   0.39383   0.58596
C     0.64353   1.84599   0.54345
C     1.43984  -0.44000   0.39758
C     1.44605  -1.86494   0.77515
O     0.52679  -2.52882   1.22379
O     2.64184  -2.42461   0.49390
C     2.71367  -3.84677   0.61550
C     2.80226   0.19424   0.38167
C     3.38443   0.72156  -0.77894
C     4.65654   1.30086  -0.73270
C     5.36066   1.36602   0.47179
C     4.78832   0.84164   1.63608
C     3.52256   0.25737   1.58865
C     0.63765  -1.10827  -1.72272
F     1.57734  -2.01360  -2.00905
F     0.84442   0.04450  -2.37614
C    -0.67877  -1.45704  -1.47861
F    -0.86384  -2.76497  -1.14026
O    -1.75549  -0.89900  -2.04774
C    -1.85675  -1.06398  -3.47677
H    -2.04374  -3.63550   2.44439
H    -3.65884  -3.47144   1.69068
H    -3.20666  -2.44224   3.07866
H    -2.44921  -2.10066   0.24138
H    -1.05072   1.55782  -1.65088
H    -2.81084   3.15928  -2.29448
H    -4.81670   3.47773  -0.83842
H    -5.00856   2.18484   1.29028
H    -3.23603   0.60971   1.95293
H     0.91657   2.18681  -0.46168
H    -0.23305   2.39387   0.89472
H     1.47725   2.04870   1.22399
H     2.52791  -4.16438   1.65201
H     3.73059  -4.12476   0.31394
H     1.97728  -4.32510  -0.04767
H     2.84731   0.68260  -1.72429
H     5.09719   1.70417  -1.64750
H     6.35322   1.82144   0.50471
H     5.33083   0.88575   2.58339
H     3.07648  -0.15433   2.49733
H    -2.80480  -0.59780  -3.77356
H    -1.02126  -0.55778  -3.98305
H    -1.86675  -2.13251  -3.74006
