34
Generated by autodE on: 2022-05-30. E = -1598.019616 Ha
C    -4.67493   0.92497   0.74623
N    -3.44681   0.46425   0.12883
C    -2.61045  -0.36693   0.75858
O    -2.82305  -0.85065   1.87369
C    -1.31223  -0.71696   0.01007
C    -1.20015  -2.23668  -0.09863
O    -1.36609  -0.12451  -1.29137
C    -0.06991   0.14134  -1.77846
C     0.34927  -0.94774  -2.68776
N     0.59128  -1.77514  -3.46250
C     0.84062   0.41190  -0.52981
C     2.21842  -0.23564  -0.65471
F     3.04056   0.06404   0.35464
F     2.15670  -1.57639  -0.72663
F     2.81014   0.19552  -1.78824
C     0.89786   1.98122  -0.30900
C     1.65917   2.29455   0.96568
C     0.84189   1.93734   1.96181
C    -0.41073   1.41264   1.28233
O    -0.46086   2.19658   0.08726
C    -0.08280  -0.01020   0.67933
Cl    0.66001  -1.04745   1.94594
H    -5.28175   1.44182  -0.00707
H    -5.24637   0.07415   1.14468
H    -4.47284   1.61999   1.57816
H    -3.13647   0.86117  -0.75253
H    -1.33771  -2.70105   0.88404
H    -1.99336  -2.58744  -0.77442
H    -0.22502  -2.54411  -0.49890
H    -0.12572   1.04517  -2.40326
H     1.15442   2.53808  -1.21607
H     2.68319   2.66047   1.01143
H     1.02368   1.93387   3.03499
H    -1.34448   1.45721   1.84912
