18
Generated by autodE on: 2022-05-30. E = -493.564757 Ha
C     3.24256  -0.23614  -0.84203
N     1.84911  -0.07318  -0.48348
C     1.07739  -1.13288  -0.16724
O     1.50261  -2.29883  -0.15655
C    -0.33389  -0.85324   0.17732
C    -1.30432  -1.89571   0.54281
O    -0.68484   0.39385   0.14057
C    -1.88283   0.91517   0.39967
C    -1.99022   2.30161   0.29059
N    -2.11139   3.46551   0.20791
H     3.35527  -0.84167  -1.75624
H     3.68103   0.75331  -1.01851
H     3.80506  -0.73556  -0.03716
H     1.44025   0.85502  -0.48184
H    -0.82610  -2.88065   0.52659
H    -1.71965  -1.69831   1.54952
H    -2.16206  -1.88664  -0.15675
H    -2.71401   0.27035   0.67760
