18
Generated by autodE on: 2022-07-27. E = -493.558272 Ha
C    -2.10996   1.93837   2.25932
N    -1.25038   1.35326   1.25341
C    -0.88648   0.05304   1.25432
O    -1.25087  -0.76815   2.10982
C     0.00510  -0.38303   0.15007
C     0.48323  -1.77317   0.02478
O     0.33085   0.54850  -0.68693
C     1.08020   0.59931  -1.78212
C     1.76306  -0.47807  -2.35379
N     2.37113  -1.31001  -2.91496
H    -1.59948   2.76118   2.78469
H    -3.03292   2.33768   1.80908
H    -2.37895   1.16606   2.98915
H    -0.90072   1.94843   0.50979
H     0.08279  -2.36864   0.85228
H     0.15945  -2.21836  -0.93203
H     1.58609  -1.81413   0.04808
H     1.11969   1.59194  -2.22617
