34
Generated by autodE on: 2022-05-30. E = -1597.909051 Ha. Imaginary frequency = -154.3 cm-1
C    -4.25221   1.11014   1.19536
N    -3.29624   0.54884   0.26240
C    -2.77456  -0.67982   0.46461
O    -3.17248  -1.45158   1.34796
C    -1.65733  -1.08299  -0.42920
C    -1.08206  -2.44386  -0.38122
O    -1.39568  -0.23511  -1.38007
C    -0.38036  -0.16428  -2.23134
C     0.28469  -1.28569  -2.76525
N     0.87779  -2.15198  -3.27977
C     1.04367   0.55423  -0.12284
C     2.34418  -0.01066  -0.56641
F     3.35773   0.44423   0.21224
F     2.38345  -1.35268  -0.50447
F     2.65641   0.34729  -1.82729
C     0.71451   2.06501  -0.27502
C     1.36625   2.78093   0.92892
C     0.64703   2.40068   1.98959
C    -0.43613   1.46151   1.41540
O    -0.66291   2.06111   0.13436
C     0.31196   0.18416   0.96644
Cl    0.60959  -1.09563   2.08397
H    -3.79782   1.30078   2.18347
H    -4.62975   2.05800   0.79238
H    -5.09814   0.42296   1.33887
H    -2.77755   1.18506  -0.33657
H    -1.41812  -2.94199   0.53401
H    -1.42724  -3.03036  -1.25143
H     0.01618  -2.42651  -0.40565
H    -0.36919   0.76710  -2.79621
H     0.85406   2.49941  -1.26914
H     2.25611   3.40649   0.87556
H     0.78266   2.62426   3.04674
H    -1.35483   1.32137   1.99234
