10
Generated by autodE on: 2022-12-30. E = -264.365765 Ha
C     2.98529  -0.03110   0.02835
C     1.56167  -0.26309  -0.05320
N     0.41468  -0.46066  -0.11273
C    -0.90427  -0.70283  -0.18697
C    -1.82214   0.31782   0.06118
N    -2.61314   1.16322   0.26656
H     3.31526   0.09669   1.07165
H     3.49641  -0.90781  -0.40220
H     3.26423   0.85493  -0.56401
H    -1.21922  -1.71351  -0.44792
