28
Generated by autodE on: 2022-12-30. E = -595.567101 Ha
C     3.72770   0.66656  -0.41351
N     2.28442   0.61570  -0.34742
C     1.57730  -0.54049  -0.37253
O     2.13147  -1.65099  -0.42116
C     0.11761  -0.42447  -0.33886
C    -0.66969   0.66711  -0.12018
O    -0.22290   1.92094   0.05359
C    -1.16928   2.97993   0.22419
C    -2.09631   0.19230   0.08139
C    -2.09627  -0.51874   1.47829
C    -1.22886  -1.78724   1.22779
C    -0.81406  -1.62788  -0.26798
C    -2.10477  -1.02834  -0.86115
H     4.11440   1.43215   0.27547
H     4.09187   0.90527  -1.42855
H     4.13925  -0.30839  -0.12441
H     1.76196   1.48579  -0.31704
H    -0.58060   3.89833   0.33904
H    -1.77920   2.82130   1.12608
H    -1.82165   3.07012  -0.65762
H    -2.88290   0.94334  -0.04812
H    -3.12793  -0.78183   1.75442
H    -1.69369   0.13521   2.26488
H    -0.34778  -1.84269   1.88282
H    -1.81725  -2.70615   1.37280
H    -0.41867  -2.53944  -0.73168
H    -2.99160  -1.66515  -0.72021
H    -2.00617  -0.75294  -1.92132
