38
Generated by autodE on: 2022-12-30. E = -859.910686 Ha. Imaginary frequency = -385.4 cm-1
C     3.92281   0.78943   0.60918
N     2.57154   1.05887   0.16480
C     1.74012   0.04559  -0.21675
O     2.18847  -1.11429  -0.31150
C     0.36231   0.41964  -0.55127
C     0.01194   1.82170  -1.09300
C    -1.31892   2.36434  -0.50629
C    -2.38878   1.46278  -1.18254
C    -1.52607   0.45064  -1.97747
C    -0.44207   1.41697  -2.51892
C    -0.66176  -0.41507  -1.03902
O    -0.61193  -1.74622  -1.37536
C    -0.26367  -2.73579  -0.40929
C    -1.95384  -0.68872   0.77021
C    -3.23662  -1.38389   0.58183
N    -1.30213  -0.24209   1.68795
C    -0.18199   0.36530   2.04906
C     0.87439  -0.39400   2.60129
N     1.77592  -1.00840   3.01904
H     4.48005   0.22695  -0.15476
H     3.94596   0.20047   1.54246
H     4.43823   1.74307   0.78364
H     2.15380   1.94294   0.42880
H     0.83860   2.53890  -1.03418
H    -1.34633   2.31453   0.58924
H    -1.44985   3.41921  -0.78982
H    -3.08012   0.99613  -0.47228
H    -3.00208   2.03898  -1.89159
H    -2.08272  -0.15627  -2.70264
H     0.34792   0.90615  -3.08857
H    -0.85338   2.24891  -3.11417
H     0.17271  -3.58015  -0.96193
H     0.47347  -2.36922   0.31240
H    -1.16695  -3.09228   0.11210
H    -3.38132  -1.66281  -0.46976
H    -3.25028  -2.29096   1.20718
H    -4.06281  -0.73054   0.90452
H    -0.19775   1.44291   2.22937
