31
Generated by autodE on: 2022-10-21. E = -618.602857 Ha
C    -1.30826   3.30484   0.25256
O    -0.45430   2.16665   0.16291
C    -1.00077   0.97128  -0.15039
C    -0.31126  -0.19198  -0.33572
C     1.12186  -0.45123  -0.23270
C     2.08190   0.58954  -0.24281
C     3.44521   0.31363  -0.14403
C     3.90117  -1.00513  -0.02770
C     2.96825  -2.04666  -0.01539
C     1.60242  -1.77618  -0.11849
C    -1.38650  -1.27820  -0.42041
C    -1.97426  -1.44595   1.01614
C    -2.72244  -0.09819   1.23744
C    -2.48660   0.65744  -0.11404
C    -2.53123  -0.51398  -1.11067
H    -0.65925   4.15824   0.48784
H    -1.82364   3.49513  -0.70239
H    -2.05327   3.18689   1.05496
H     1.74711   1.62193  -0.33429
H     4.16165   1.13933  -0.15887
H     4.97005  -1.21714   0.05108
H     3.30562  -3.08245   0.07581
H     0.89501  -2.60674  -0.10362
H    -1.07035  -2.21637  -0.89267
H    -2.67001  -2.29829   1.05492
H    -1.18183  -1.62448   1.75706
H    -3.80024  -0.25480   1.39499
H    -2.33773   0.47588   2.09252
H    -3.16685   1.49806  -0.28910
H    -2.29045  -0.21262  -2.14062
H    -3.49063  -1.05448  -1.09306
