48
Generated by autodE on: 2022-10-21. E = -1281.423488 Ha
C    -0.21313   3.97837   3.60564
O    -0.44835   3.03743   2.54569
C     0.62469   2.48796   1.98901
O     1.77003   2.73243   2.31765
C     0.30376   1.51091   0.89796
N    -0.89138   1.30413   0.49721
C    -0.86590   0.32279  -0.60547
C    -1.28501   1.07826  -1.88422
O    -0.67866   1.04675  -2.93346
O    -2.41912   1.74856  -1.70742
C    -2.93744   2.45826  -2.84421
C    -1.88119  -0.79348  -0.37490
C    -2.36375  -1.07144   0.90852
C    -3.23795  -2.14275   1.11698
C    -3.63581  -2.94715   0.04593
C    -3.15364  -2.67453  -1.23870
C    -2.28041  -1.60533  -1.44726
C     0.60610  -0.18601  -0.73106
C     0.90003  -1.59044  -0.12557
O     0.92723  -1.31523   1.28004
C     2.00705  -0.37051   1.22112
C     3.08927  -1.11220   0.43681
C     4.53082  -0.77001   0.62263
C     2.36830  -1.87433  -0.41449
O     2.63701  -2.68429  -1.45715
C     3.98867  -2.80774  -1.88786
C     1.39931   0.71167   0.26034
H    -1.20292   4.31231   3.93648
H     0.37478   4.83098   3.23642
H     0.32401   3.49374   4.43359
H    -3.16433   1.75651  -3.65965
H    -2.21077   3.20539  -3.19351
H    -3.85384   2.95009  -2.49902
H    -2.05380  -0.44911   1.74787
H    -3.60803  -2.34854   2.12423
H    -4.31904  -3.78364   0.21020
H    -3.45686  -3.29783  -2.08316
H    -1.89909  -1.40906  -2.45220
H     0.94248  -0.12546  -1.76992
H     0.19519  -2.38780  -0.37927
H     2.28137  -0.00904   2.21894
H     4.70423   0.29692   0.39212
H     4.83157  -0.91258   1.67509
H     5.20582  -1.36163  -0.00624
H     3.97792  -3.46194  -2.76929
H     4.40546  -1.82628  -2.16510
H     4.61305  -3.26543  -1.10404
H     2.17985   1.34905  -0.17508
