36
Generated by autodE on: 2022-10-23. E = -804.571707 Ha. Imaginary frequency = -444.0 cm-1
C    -1.13193   1.97213   2.13547
C    -1.62194   1.76136   0.89367
C    -3.05191   2.10329   0.55870
C    -0.86010   1.14427  -0.18962
C     0.52280   0.83002  -0.14837
C     1.29868   0.87567  -1.40053
C     2.62693   1.08230  -1.53089
C     3.56500   1.34351  -0.38430
C     3.27529   1.08362  -2.88785
C     0.45162  -1.15571   0.25468
C     1.79533  -1.63721   0.35152
N     2.91253  -1.94897   0.42153
N    -0.38704  -1.60213  -0.75229
C    -1.64731  -1.23731  -0.39367
C    -2.83787  -1.34996  -1.26827
C    -1.64075  -1.10628   1.04078
O    -2.52081  -0.97552   1.87025
O    -0.29120  -1.17401   1.41815
H    -0.10658   1.71466   2.41134
H    -1.75791   2.41552   2.91416
H    -3.55226   2.62230   1.38852
H    -3.10621   2.74190  -0.33886
H    -3.62072   1.18659   0.33175
H    -1.32132   1.20322  -1.17895
H     1.05977   1.10783   0.76190
H     0.71413   0.71254  -2.31381
H     3.07521   1.32697   0.59771
H     4.05396   2.32576  -0.51048
H     4.37302   0.59305  -0.37323
H     3.77967   2.04708  -3.08128
H     4.06092   0.30917  -2.94385
H     2.55024   0.90166  -3.69482
H    -0.07386  -1.62851  -1.72216
H    -3.13074  -2.40644  -1.39540
H    -3.68239  -0.81456  -0.81517
H    -2.63767  -0.92864  -2.26422
