44
Generated by autodE on: 2022-06-20. E = -1009.841337 Ha
C    -2.58195  -2.94515   0.24652
C    -2.16374  -1.69185   0.46972
C    -3.00233  -0.66652   1.18208
C    -0.78655  -1.28016  -0.00889
C    -0.59741   0.19379  -0.38426
C    -1.26418   0.58888  -1.66293
C    -1.85728   1.77088  -1.91320
C    -2.46383   2.05375  -3.25969
C    -1.94847   2.90467  -0.92934
C     0.96195   0.32835  -0.37732
C     1.54841  -0.19697  -1.63238
N     2.02511  -0.68880  -2.56850
C     1.32124   1.82662  -0.26162
O     1.45174   2.50534  -1.28075
N     1.39024   2.29560   0.98642
C     1.53215   3.71196   1.26586
N     1.35030  -0.45987   0.77648
C     2.76134  -0.73616   1.00571
C     0.38208  -1.52988   1.02671
C    -0.06011  -1.46028   2.43986
N    -0.37907  -1.37264   3.55047
C     0.93241  -2.88614   0.80011
N     1.37891  -3.93653   0.59872
H    -3.55815  -3.28844   0.60083
H    -1.96023  -3.66473  -0.29449
H    -3.26627   0.16101   0.50246
H    -3.93324  -1.11455   1.55669
H    -2.46699  -0.21670   2.03301
H    -0.52336  -1.88873  -0.88531
H    -0.93579   0.82023   0.44943
H    -1.22820  -0.15997  -2.46133
H    -2.35299   1.20577  -3.95097
H    -3.53770   2.28968  -3.16075
H    -1.99212   2.94174  -3.71565
H    -1.60951   2.64292   0.08107
H    -1.33463   3.75169  -1.28035
H    -2.98593   3.27296  -0.86396
H     1.23260   1.63578   1.74381
H     1.74643   3.84565   2.33304
H     0.61087   4.26296   1.01370
H     2.35841   4.13738   0.67821
H     3.32492   0.20488   0.95547
H     2.88867  -1.15676   2.01333
H     3.18376  -1.44184   0.26767
