23
Generated by autodE on: 2022-06-20. E = -351.521388 Ha
C     3.73435  -0.57812  -0.13884
C     2.57889   0.12242  -0.14164
C     2.57345   1.62373  -0.27647
C     1.30129  -0.57571  -0.01335
C     0.07757   0.01010  -0.00331
C    -1.16085  -0.73059   0.12484
C    -2.41853  -0.22119   0.14222
C    -2.74295   1.24132   0.02834
C    -3.61187  -1.12338   0.28255
H     4.70372  -0.08101  -0.23409
H     3.73541  -1.66814  -0.04106
H     2.09203   2.09939   0.59415
H     2.00110   1.94073  -1.16410
H     3.59515   2.01913  -0.36499
H     1.35887  -1.66680   0.08120
H     0.01165   1.09751  -0.09686
H    -1.05481  -1.81835   0.21645
H    -3.31256   1.57597   0.91331
H    -3.39840   1.42057  -0.84223
H    -1.85848   1.88343  -0.07172
H    -3.32585  -2.18277   0.35747
H    -4.29521  -1.00562  -0.57762
H    -4.20109  -0.85627   1.17830
