21
Generated by autodE on: 2022-06-20. E = -658.269557 Ha
C     3.78014   0.51925  -0.14796
N     2.55793  -0.04488   0.39197
C     1.40999  -0.10839  -0.29797
O     1.24166   0.32466  -1.43876
C     0.28730  -0.84582   0.38903
C     0.61670  -2.01683   1.11061
N     0.96742  -2.95138   1.70037
N    -0.99800  -0.52114   0.19303
C    -2.06057  -1.51967   0.45645
C    -1.42581   0.70018  -0.24685
C    -0.61784   1.85663  -0.18104
N    -0.00913   2.83163  -0.09267
C    -2.76162   0.86798  -0.67910
N    -3.84379   1.04850  -1.03931
H     4.09778   1.39153   0.44340
H     4.58871  -0.22732  -0.13361
H     3.60046   0.83539  -1.18151
H     2.57526  -0.40079   1.34411
H    -1.61299  -2.44479   0.82645
H    -2.58203  -1.72178  -0.48836
H    -2.76032  -1.11197   1.19526
