44
Generated by autodE on: 2022-06-20. E = -1009.777697 Ha. Imaginary frequency = -310.2 cm-1
C    -2.30335  -2.56695   2.08871
C    -1.76699  -1.37338   1.75783
C    -1.59439  -0.27646   2.77603
C    -1.37028  -1.13143   0.36221
C    -1.16274   0.19416  -0.15116
C    -1.52531   0.48380  -1.52867
C    -1.75751   1.70838  -2.06143
C    -2.07336   1.85435  -3.52151
C    -1.71901   2.99308  -1.28594
C     1.06283   0.39113  -0.07105
C     1.31570   0.42057  -1.48006
N     1.50359   0.52049  -2.62511
C     1.17822   1.71601   0.63930
O     0.97157   1.81427   1.85332
N     1.43545   2.78641  -0.13453
C     1.28714   4.13197   0.38429
N     1.38529  -0.77747   0.61061
C     2.07128  -0.77997   1.91131
C     0.66870  -1.91932   0.25785
C     0.70476  -3.03222   1.15274
N     0.61838  -3.92811   1.88991
C     0.57842  -2.32604  -1.12080
N     0.43928  -2.69256  -2.21558
H    -2.61980  -2.78244   3.11277
H    -2.44638  -3.35192   1.34117
H    -2.32403   0.53276   2.60104
H    -1.75105  -0.65922   3.79409
H    -0.60119   0.18917   2.71813
H    -1.75468  -1.86516  -0.35048
H    -1.25107   1.00670   0.56799
H    -1.58017  -0.38176  -2.19664
H    -2.10086   0.88472  -4.03925
H    -3.04367   2.36135  -3.66636
H    -1.31708   2.49129  -4.01392
H    -2.68261   3.52218  -1.38809
H    -1.51012   2.85916  -0.21758
H    -0.95256   3.66752  -1.70399
H     1.52153   2.66960  -1.13877
H     1.50137   4.84487  -0.42063
H     1.98569   4.31277   1.21500
H     0.26334   4.30510   0.75406
H     1.36560  -0.78839   2.75295
H     2.70513  -1.67502   1.95928
H     2.71406   0.10008   1.98352
