61
Generated by autodE on: 2022-06-10. E = -3918.263527 Ha
C    -1.95955   1.73483   3.81069
N    -1.31185   1.40695   2.55892
C    -1.66132   0.36824   1.78934
O    -2.61288  -0.37842   2.03019
C    -0.86809   0.27278   0.44259
C    -1.89922   0.82435  -0.55486
C    -3.07128   0.10793  -0.84427
C    -4.03500   0.63782  -1.70353
C    -3.85272   1.90111  -2.27575
C    -2.70052   2.62980  -1.97308
C    -1.73311   2.09737  -1.11492
O     0.24300   1.15200   0.46191
C     1.49588   0.51072   0.74757
C     1.71309   0.50879   2.26612
C     2.59431   1.32182   0.06537
C     2.29267   2.36681  -0.81739
C     3.31334   3.08267  -1.45180
C     4.65211   2.76146  -1.21810
C     4.96251   1.71834  -0.33949
C     3.94367   1.00963   0.30010
C     1.31457  -0.91926   0.11084
Br    2.40780  -2.24403   1.13030
C     1.71773  -1.02232  -1.39258
C     1.72150  -2.47932  -1.88488
C     0.23190  -2.88167  -1.74995
C    -0.47399  -1.54260  -1.40462
C     0.44751  -0.52301  -2.10031
C    -0.26451  -1.17416   0.09469
C    -0.77742  -2.17895   1.13637
O    -0.40531  -2.13001   2.30973
N    -1.68496  -3.08405   0.72098
C    -2.37932  -3.92843   1.67313
H    -2.23712   2.79940   3.83333
H    -2.86658   1.12702   3.91360
H    -1.29743   1.52962   4.66765
H    -0.51670   1.95611   2.25070
H    -3.23264  -0.86974  -0.39341
H    -4.93471   0.05884  -1.92474
H    -4.60771   2.31574  -2.94785
H    -2.54906   3.62259  -2.40342
H    -0.84302   2.67740  -0.87875
H     1.60494   1.54077   2.63031
H     0.98949  -0.14602   2.76534
H     2.71917   0.16594   2.52865
H     1.25372   2.62051  -1.01632
H     3.05525   3.89598  -2.13444
H     5.44914   3.31913  -1.71555
H     6.00519   1.45363  -0.14814
H     4.20713   0.19081   0.97047
H     2.64593  -0.48442  -1.60721
H     2.40182  -3.13218  -1.32855
H     2.04176  -2.48156  -2.93709
H     0.08187  -3.64974  -0.98225
H    -0.17283  -3.27832  -2.69211
H    -1.52154  -1.51927  -1.71546
H     0.49825  -0.67831  -3.18762
H     0.20153   0.52419  -1.91056
H    -2.04687  -3.02632  -0.22370
H    -1.66715  -4.53883   2.24837
H    -2.96410  -3.32372   2.38634
H    -3.05837  -4.59628   1.12871
