37
Generated by autodE on: 2022-07-27. E = -863.612918 Ha
C    -2.52584  -0.69867   3.89777
N    -2.19706  -0.84965   2.49634
C    -1.14020  -0.19545   1.94067
O    -0.38785   0.50672   2.65330
C    -0.94015  -0.31578   0.50371
O     0.27800   0.05886   0.00978
C     1.46800  -0.17757   0.49160
C     1.65153  -1.13383   1.59800
C     2.53984   0.49248  -0.21709
C     2.25721   1.34378  -1.31463
C     3.28784   1.96568  -2.01097
C     4.62141   1.77515  -1.62444
C     4.91372   0.95298  -0.53053
C     3.88955   0.31768   0.16810
C    -1.92790  -0.48133  -0.54511
C    -3.32752  -0.38960  -0.32936
C    -4.22976  -0.53673  -1.38080
C    -3.78244  -0.76663  -2.68762
C    -2.40553  -0.84935  -2.92341
C    -1.49450  -0.71883  -1.87701
H    -1.75436  -1.13485   4.55564
H    -2.63163   0.36356   4.16807
H    -3.47873  -1.20628   4.09526
H    -2.71663  -1.51813   1.94060
H     0.86564  -1.90781   1.52218
H     2.64292  -1.60003   1.56149
H     1.50499  -0.65400   2.58136
H     1.22112   1.51112  -1.60957
H     3.05200   2.61301  -2.85874
H     5.42737   2.27241  -2.16867
H     5.94985   0.80611  -0.21757
H     4.13934  -0.31471   1.02018
H    -3.71300  -0.17805   0.66699
H    -5.30056  -0.45622  -1.17629
H    -4.49538  -0.88042  -3.50720
H    -2.03412  -1.03152  -3.93532
H    -0.42719  -0.81353  -2.08097
