24
Generated by autodE on: 2022-06-10. E = -3054.571171 Ha
C     2.24729   3.54727  -0.20425
N     1.26073   2.63911   0.34191
C     1.28525   1.31506   0.05441
O     2.16444   0.82441  -0.66551
C     0.19830   0.51668   0.66566
C    -0.31189  -0.66559   0.25361
Br    0.14244  -1.70306  -1.25209
C    -1.54312  -0.98894   1.07543
C    -2.63443   0.03157   0.61290
C    -2.07450   1.39165   1.11752
C    -0.72851   0.97991   1.79486
C    -1.12001  -0.37168   2.42351
H     3.26731   3.24076   0.07688
H     2.20162   3.58276  -1.30546
H     2.06101   4.55453   0.18801
H     0.50407   3.01574   0.90100
H    -1.85675  -2.03905   1.06154
H    -2.78201  -0.00040  -0.47584
H    -3.59396  -0.21354   1.09121
H    -1.91425   2.11940   0.30968
H    -2.74435   1.85116   1.85926
H    -0.30179   1.73515   2.46675
H    -0.27105  -0.89346   2.88822
H    -1.95141  -0.29196   3.14007
