61
Generated by autodE on: 2022-06-10. E = -3918.186137 Ha. Imaginary frequency = -235.8 cm-1
C    -2.22219   0.08228   4.35521
N    -1.84963  -0.10728   2.96560
C    -1.32580   0.90558   2.26072
O    -1.18185   2.04663   2.72366
C    -0.96389   0.69945   0.80173
C    -2.03685   0.81708  -0.18181
C    -3.28897   0.20602   0.05638
C    -4.29635   0.24553  -0.90634
C    -4.09245   0.90388  -2.12415
C    -2.86564   1.53531  -2.36094
C    -1.85008   1.49448  -1.40755
O     0.21011   1.23609   0.42555
C     1.40916   0.97610   0.94783
C     1.51593   0.63330   2.39398
C     2.50946   1.60073   0.21469
C     2.26745   2.48882  -0.85643
C     3.32408   3.02647  -1.58893
C     4.64683   2.69804  -1.27172
C     4.90099   1.82825  -0.20564
C     3.84901   1.28929   0.53335
C     1.43156  -1.30533   0.05471
Br    2.54553  -2.21836   1.32508
C     2.02223  -1.16138  -1.34347
C     1.91882  -2.56733  -2.01059
C     0.38408  -2.75601  -2.18315
C    -0.19751  -1.42815  -1.59492
C     0.87645  -0.42994  -2.05862
C     0.05649  -1.51799  -0.08766
C    -0.84446  -2.24422   0.81767
O    -0.60485  -2.43922   2.02864
N    -1.99442  -2.70442   0.26635
C    -3.03651  -3.29732   1.07855
H    -2.90943   0.93457   4.45730
H    -2.72498  -0.82466   4.71493
H    -1.34222   0.27726   4.99215
H    -1.63915  -1.06134   2.65457
H    -3.46422  -0.31768   0.99496
H    -5.25038  -0.24663  -0.70215
H    -4.88291   0.93105  -2.87751
H    -2.69671   2.06758  -3.30033
H    -0.90390   1.99588  -1.60606
H     1.20903   1.50369   2.99876
H     0.86628  -0.21115   2.65804
H     2.54307   0.37405   2.66356
H     1.24294   2.76852  -1.10033
H     3.11292   3.71496  -2.41058
H     5.47334   3.12149  -1.84680
H     5.92911   1.56395   0.05261
H     4.07057   0.59575   1.34412
H     3.01764  -0.70342  -1.37550
H     2.43558  -2.55370  -2.98165
H     2.38313  -3.34754  -1.39196
H     0.10409  -2.84307  -3.24370
H    -0.00200  -3.64134  -1.65978
H    -1.22753  -1.20549  -1.89685
H     0.99742  -0.42619  -3.15190
H     0.71607   0.59028  -1.71160
H    -2.23355  -2.41669  -0.67500
H    -3.83044  -3.67114   0.41986
H    -2.64057  -4.13648   1.66897
H    -3.47610  -2.56824   1.78072
