46
Generated by autodE on: 2022-06-21. E = -1052.887864 Ha
C    -0.68807  -3.14261  -1.41356
N     0.23995  -2.13758  -0.92387
C     1.50335  -2.46194  -0.56916
C     2.41550  -1.60639  -0.01469
C     3.74679  -2.13948   0.28909
N     4.61111  -1.30300   0.92428
O     4.10641  -3.29990  -0.00541
C     2.00724  -0.19192   0.31010
C     0.85099   0.27538  -0.60528
C     0.04531   1.37335   0.06352
C     0.48663   2.78120   0.10225
C     1.65601   3.18790  -0.56488
C     2.06824   4.52240  -0.52648
C     1.31825   5.46880   0.17627
C     0.15101   5.07463   0.84354
C    -0.26039   3.74444   0.80777
N    -1.02303   0.96311   0.65344
C    -1.15802  -0.48925   0.46163
C    -2.59166  -0.93384   0.30981
C    -3.09703  -1.99173   1.07731
C    -4.41286  -2.43348   0.90715
C    -5.24243  -1.81582  -0.03356
C    -4.74873  -0.75418  -0.80038
C    -3.43282  -0.31773  -0.62949
C    -0.24881  -0.78530  -0.76536
H    -0.12909  -4.01986  -1.76638
H    -1.27454  -2.73638  -2.25225
H    -1.39549  -3.46884  -0.63366
H     1.79232  -3.49628  -0.76680
H     4.33482  -0.39279   1.26907
H     5.51944  -1.66535   1.19159
H     1.69584  -0.10660   1.36743
H     2.84742   0.50694   0.18295
H     1.26000   0.57176  -1.58018
H     2.25139   2.46068  -1.11844
H     2.97929   4.82244  -1.04921
H     1.64082   6.51221   0.20612
H    -0.43861   5.81102   1.39471
H    -1.16694   3.43141   1.32675
H    -0.73183  -0.99220   1.34652
H    -2.44855  -2.47528   1.81266
H    -4.79127  -3.26073   1.51262
H    -6.27138  -2.15814  -0.16783
H    -5.39259  -0.26466  -1.53531
H    -3.05297   0.51145  -1.23118
H    -0.83618  -0.53752  -1.66473
