20
Generated by autodE on: 2022-06-21. E = -457.715321 Ha
C     3.14714  -0.45155   0.01593
N     1.82406   0.14732  -0.04226
C     1.69741   1.51043  -0.33706
C     0.50671   2.12031  -0.44775
C    -0.80752   1.40211  -0.26498
C    -0.57182  -0.07052   0.02970
C    -1.69595  -0.99843   0.23263
N    -2.93771  -0.45937   0.13904
O    -1.55043  -2.21374   0.47712
C     0.68709  -0.58589   0.11810
H     3.65391  -0.39760  -0.96194
H     3.77712   0.06152   0.75993
H     3.05592  -1.50594   0.30444
H     2.64175   2.04137  -0.47039
H     0.48924   3.18796  -0.67824
H    -1.43815   1.52809  -1.16872
H    -1.39237   1.88060   0.54746
H    -3.09618   0.51923  -0.06417
H    -3.74109  -1.06432   0.26885
H     0.82803  -1.64682   0.33067
