46
Generated by autodE on: 2022-06-21. E = -1052.784587 Ha. Imaginary frequency = -357.5 cm-1
C    -0.04698  -3.74308  -0.21041
N     0.63472  -2.50405  -0.54224
C     1.76150  -2.13048   0.12230
C     2.43266  -0.96341  -0.12555
C     3.60677  -0.66333   0.70027
N     4.32063   0.44988   0.37123
O     3.97992  -1.38841   1.64679
C     1.98298  -0.09052  -1.27979
C     0.49764  -0.29621  -1.50956
C    -0.20513   0.92238   0.23401
C     0.57303   2.08999   0.56468
C     0.56368   3.21863  -0.27854
C     1.40908   4.29366  -0.00805
C     2.29361   4.24332   1.07675
C     2.31997   3.11350   1.90171
C     1.46402   2.04019   1.65615
N    -1.13074   0.28221   0.69699
C    -1.83938  -0.83260   0.57121
C    -3.13409  -0.85027  -0.07215
C    -3.88996  -2.04617  -0.08195
C    -5.11017  -2.11294  -0.75086
C    -5.61446  -0.99188  -1.42405
C    -4.87716   0.19943  -1.41841
C    -3.65444   0.27524  -0.75347
C    -0.06604  -1.53301  -1.28295
H     0.66580  -4.44914   0.23361
H    -0.46715  -4.19598  -1.12065
H    -0.87444  -3.57612   0.50050
H     2.12142  -2.82327   0.88487
H     3.93683   1.15186  -0.24961
H     5.03471   0.75241   1.02559
H     2.18468   0.97410  -1.08600
H     2.54934  -0.33259  -2.20368
H     0.00235   0.35445  -2.23377
H    -0.10641   3.24029  -1.14041
H     1.38814   5.17292  -0.65608
H     2.96506   5.08178   1.27463
H     3.01357   3.06631   2.74446
H     1.48968   1.15157   2.28929
H    -1.55004  -1.66279   1.21906
H    -3.49920  -2.92522   0.43715
H    -5.67676  -3.04770  -0.74712
H    -6.57248  -1.04587  -1.94596
H    -5.26253   1.08103  -1.93730
H    -3.09046   1.21084  -0.75352
H    -0.98063  -1.87787  -1.75924
