31
Generated by autodE on: 2022-06-18. E = -1008.562627 Ha
C    -3.41466  -1.61987   0.45577
C    -2.32809  -0.84764   1.13293
O    -2.40991  -0.37989   2.24963
C    -1.01638  -0.68916   0.36348
N     0.13411  -0.31706   1.13054
C     1.10411  -0.56058   0.05660
C     2.56871  -0.48937   0.46721
C     3.59543  -0.79714  -0.58028
O     2.84379  -0.28028   1.63353
C     0.65910  -1.94464  -0.47653
O     1.28265  -2.82199  -1.01280
O    -0.66973  -2.00096  -0.24377
C     0.57276   0.45250  -1.01076
C     1.14192   1.84026  -0.77164
O     2.32454   1.99579  -0.51207
C     0.23817   3.00085  -0.88514
C    -1.09914   2.88105  -0.78523
C    -1.75332   1.57905  -0.56729
O    -2.91889   1.51200  -0.20605
C    -0.96357   0.31157  -0.82480
H    -3.13858  -2.68759   0.46053
H    -3.51741  -1.31407  -0.59537
H    -4.36021  -1.48390   0.99562
H     0.28059  -0.93760   1.93025
H     4.56461  -0.37848  -0.27912
H     3.30212  -0.42748  -1.57154
H     3.68622  -1.89416  -0.64822
H     0.88092   0.16666  -2.02750
H     0.72254   3.97755  -0.96269
H    -1.75561   3.75487  -0.78238
H    -1.42985  -0.15565  -1.70322
