19
Generated by autodE on: 2022-06-18. E = -626.910559 Ha
C     3.66426   0.40610   0.14349
C     2.56847  -0.55221  -0.19260
O     2.72789  -1.69561  -0.59129
C     1.18027  -0.06605  -0.02501
N     0.09886  -0.76994  -0.26974
C    -1.03310  -0.03080  -0.01196
C    -2.36021  -0.58000  -0.19903
C    -3.52489   0.31779   0.11637
O    -2.49675  -1.73853  -0.60068
C    -0.59523   1.25053   0.43233
O    -1.12118   2.28029   0.79013
O     0.85049   1.14966   0.39690
H     3.56654   1.31558  -0.47185
H     3.57415   0.71943   1.19675
H     4.63768  -0.06864  -0.02991
H     0.10068  -1.73643  -0.60547
H    -4.46359  -0.22013  -0.06877
H    -3.48010   0.64578   1.16736
H    -3.48467   1.22853  -0.50248
