12
Generated by autodE on: 2022-06-18. E = -381.636087 Ha
O     0.72140  -2.55778   0.22089
C     0.38950  -1.38140   0.11787
C    -1.03877  -0.99096   0.03333
C    -1.40237   0.29891  -0.07497
C    -0.38950   1.38140  -0.11783
O    -0.72140   2.55777  -0.22091
C     1.03877   0.99096  -0.03334
C     1.40238  -0.29891   0.07497
H    -1.76678  -1.80505   0.06570
H    -2.44773   0.61003  -0.13871
H     1.76678   1.80504  -0.06572
H     2.44774  -0.61003   0.13869
