12
Generated by autodE on: 2022-06-19. E = -157.300301 Ha
C    -1.94168   0.22569  -0.19186
C    -0.50090   0.40743   0.17834
C     0.50091  -0.40738  -0.17842
C     1.94167  -0.22572   0.19191
H    -2.32097   1.09288  -0.76129
H    -2.57921   0.14668   0.70665
H    -2.09581  -0.67830  -0.80188
H    -0.26523   1.28818   0.79209
H     0.26525  -1.28812  -0.79219
H     2.57942  -0.14770  -0.70652
H     2.09592   0.67875   0.80120
H     2.32058  -1.09251   0.76222
