31
Generated by autodE on: 2022-06-19. E = -817.536117 Ha
C    -3.17974   0.89751   2.72653
N    -1.96636   0.46366   2.06507
C    -1.96740   0.07631   0.76441
O    -3.02631   0.15024   0.09846
C    -0.68823  -0.36069   0.19752
C    -0.42075  -0.38408  -1.25539
O     0.65794  -0.78557  -1.73884
N    -1.43694   0.01163  -2.05553
C    -1.35190  -0.11883  -3.49249
N     0.28605  -0.88329   1.02424
C    -0.07927  -1.80820   2.12712
C     1.58108  -0.73367   0.80568
C     2.16760   0.39967   0.08515
O     1.62734   1.46010  -0.17659
O     3.46195   0.15070  -0.17260
C     4.19710   1.19998  -0.81436
H    -2.96883   1.03682   3.79430
H    -3.97629   0.14589   2.61786
H    -3.55661   1.84903   2.31443
H    -1.08883   0.57222   2.55805
H    -2.34007   0.14104  -1.59352
H    -1.41212  -1.16997  -3.82706
H    -2.17940   0.43741  -3.95221
H    -0.40078   0.29247  -3.86129
H    -1.12157  -2.11902   2.01821
H     0.08407  -1.32326   3.09822
H     0.57318  -2.68770   2.05461
H     2.25989  -1.43799   1.28584
H     5.21114   0.81175  -0.96461
H     3.73926   1.45312  -1.78189
H     4.22520   2.09796  -0.17971
