43
Generated by autodE on: 2022-06-19. E = -974.812106 Ha. Imaginary frequency = -343.1 cm-1
C    -1.65103  -1.50340   2.83850
N    -1.27082  -0.41055   1.96587
C    -1.09909  -0.60357   0.64471
O    -1.48163  -1.63035   0.06977
C    -0.63183   0.64593  -0.09385
C    -1.81825   1.43485  -0.57538
O    -1.87427   2.66993  -0.64349
N    -2.85610   0.67076  -0.98998
C    -4.02832   1.26632  -1.59524
C     0.19369  -0.14231  -2.06315
C     0.01627   1.04919  -2.97136
C     1.47080  -0.58167  -1.74226
C     1.77554  -2.03080  -1.48879
C     1.70946   0.59794   0.43610
C     1.98839  -0.67753   1.06017
O     1.22468  -1.53949   1.47156
O     3.34021  -0.83827   1.14295
C     3.79722  -2.04991   1.74604
N     0.52360   1.27019   0.31387
C     0.70106   2.72929   0.12559
H    -0.85591  -2.26473   2.89589
H    -1.84155  -1.10872   3.84432
H    -2.56550  -1.98673   2.46700
H    -0.81427   0.39457   2.38249
H    -2.74317  -0.33904  -1.00580
H    -4.76868   0.47827  -1.78113
H    -3.78944   1.75926  -2.55301
H    -4.47481   2.02207  -0.93124
H    -0.60013  -0.89392  -2.08382
H     0.80317   1.80117  -2.80570
H     0.09941   0.72178  -4.02342
H    -0.95926   1.54527  -2.87519
H     2.31343   0.04312  -2.05557
H     2.73598  -2.17214  -0.97395
H     1.85016  -2.57134  -2.45031
H     0.98616  -2.51752  -0.89833
H     2.58134   1.24787   0.41069
H     3.44045  -2.92964   1.19030
H     4.89296  -2.00953   1.71568
H     3.45456  -2.12166   2.78953
H     1.70389   2.99147   0.47554
H     0.59238   3.01150  -0.92713
H    -0.04240   3.27264   0.71413
