76
Generated by autodE on: 2022-07-04. E = -1952.074853 Ha
C     6.08130   1.94395 -30.03846
O     6.49822   2.45395 -28.76558
C     6.05029   3.65058 -28.39914
O     5.31308   4.33845 -29.07628
C     6.47558   4.00870 -26.96641
C     7.84417   3.49951 -26.56534
C     7.74902   2.55642 -25.60381
C     8.85029   1.73355 -24.91159
C     8.27914   1.08740 -23.62568
C     8.43704   1.68718 -22.36631
C     7.87929   1.11573 -21.21968
C     7.15074  -0.07238 -21.30512
C     7.00629  -0.69525 -22.54749
C     7.57422  -0.12685 -23.68868
C     9.39194   0.60720 -25.82788
C    10.29875  -0.31406 -25.27468
C    10.87127  -1.32145 -26.05249
C    10.54555  -1.43375 -27.40864
C     9.64935  -0.52241 -27.96946
C     9.08166   0.48894 -27.18677
C    10.09955   2.60995 -24.53727
C     9.88876   4.06854 -24.08472
C    10.38539   5.10836 -25.09357
C     9.48170   5.42183 -26.28309
C     9.04831   4.22425 -27.20180
C    10.21467   3.38803 -27.52191
N    11.18297   2.83102 -27.82960
C     8.63966   4.78433 -28.60229
O     8.83815   4.19317 -29.63960
O     8.05955   5.96927 -28.51525
C     7.64209   6.58983 -29.74736
C     6.26570   2.40195 -25.19963
C     6.01012   2.85004 -23.73982
O     5.31792   2.28787 -22.92366
O     6.57382   4.04059 -23.53469
C     6.36172   4.64834 -22.25198
C     5.61510   1.04009 -25.51726
O     4.57485   0.63419 -25.04439
O     6.25014   0.44832 -26.51967
C     5.65807  -0.71690 -27.10085
N     5.55150   3.30305 -26.10551
C     4.34922   3.99157 -25.68342
H     6.51494   0.94031 -30.11490
H     4.98462   1.89165 -30.08960
H     6.46186   2.58670 -30.84531
H     6.38853   5.10288 -26.86214
H     8.98185   2.62290 -22.26229
H     8.01217   1.61135 -20.25518
H     6.70782  -0.51503 -20.40995
H     6.45324  -1.63354 -22.63230
H     7.47877  -0.64630 -24.64069
H    10.55705  -0.24951 -24.21608
H    11.57259  -2.02391 -25.59536
H    10.98783  -2.22416 -28.01979
H     9.38539  -0.59011 -29.02779
H     8.38911   1.18432 -27.65311
H    10.63044   2.05382 -23.75404
H    10.78528   2.59928 -25.38825
H    10.45161   4.22030 -23.15064
H     8.83657   4.26457 -23.84087
H    10.52911   6.06898 -24.57262
H    11.38418   4.81241 -25.45741
H     9.99673   6.15354 -26.92126
H     8.55076   5.89385 -25.93948
H     7.19403   7.54639 -29.45804
H     6.90302   5.95594 -30.25416
H     8.51326   6.75003 -30.39690
H     6.90871   5.59731 -22.27521
H     5.28933   4.82744 -22.09039
H     6.75267   4.00047 -21.45517
H     6.37573  -1.07553 -27.84770
H     5.48914  -1.48732 -26.33513
H     4.70389  -0.45626 -27.58176
H     3.68003   3.28792 -25.16914
H     3.81994   4.36707 -26.57116
H     4.55314   4.84793 -25.01197
