29
Generated by autodE on: 2022-07-04. E = -857.261712 Ha
C     3.80305   0.00379  -2.32649
O     3.33062  -0.12748  -0.97729
C     2.06843   0.24532  -0.74821
O     1.32796   0.69606  -1.60004
C     1.77322   0.11715   0.69228
N     0.57505   0.18389   1.22210
C     0.52875   0.41952   2.68921
C    -0.60359  -0.07644   0.52655
C    -1.81938   0.63089   0.90418
O    -2.97240   0.28858   0.68284
O    -1.54030   1.79747   1.53659
C    -2.65404   2.52007   2.06584
C    -0.56832  -1.14614  -0.46172
O     0.40231  -1.86371  -0.69029
O    -1.72904  -1.31217  -1.11874
C    -1.77723  -2.38312  -2.06627
H     4.83274  -0.37082  -2.32332
H     3.17994  -0.59340  -3.00781
H     3.78094   1.05783  -2.63898
H     2.62467   0.07390   1.37145
H     1.37945  -0.10368   3.14120
H    -0.40614   0.02261   3.09377
H     0.60785   1.49333   2.89024
H    -3.21606   1.90416   2.78402
H    -2.23297   3.39697   2.57233
H    -3.33066   2.84093   1.26010
H    -2.77988  -2.34625  -2.50887
H    -1.62086  -3.35303  -1.57127
H    -1.01369  -2.24872  -2.84662
