29
Generated by autodE on: 2022-07-27. E = -857.261356 Ha
C     1.98900   0.46978  -3.87947
O     0.96031   1.06238  -3.07508
C     0.83032   0.59123  -1.82755
O     1.53424  -0.29025  -1.36466
C    -0.21108   1.34892  -1.12598
N    -0.60937   1.12089   0.11202
C    -1.36779   2.23334   0.74666
C    -0.43121  -0.06620   0.79651
C    -0.24931  -0.07241   2.24252
O    -0.40003  -1.04190   2.97317
O     0.15113   1.12480   2.72366
C     0.24982   1.24292   4.14546
C    -0.46053  -1.35120   0.09259
O    -0.00525  -2.39718   0.52506
O    -1.11850  -1.29361  -1.08276
C    -1.06061  -2.45939  -1.90822
H     1.93029   0.96372  -4.85594
H     1.81568  -0.61106  -3.98715
H     2.97687   0.63766  -3.42640
H    -0.60727   2.23174  -1.62501
H    -2.00288   1.83691   1.54264
H    -1.98963   2.69583  -0.02847
H    -0.66621   2.97305   1.14681
H     1.01411   0.55804   4.54115
H     0.53883   2.28209   4.34308
H    -0.71558   1.02201   4.62479
H    -1.56708  -3.30805  -1.42565
H    -0.01561  -2.73052  -2.11850
H    -1.57475  -2.19580  -2.84027
