76
Generated by autodE on: 2022-07-04. E = -1951.970599 Ha. Imaginary frequency = -253.1 cm-1
C     7.65850   2.57733 -30.64208
O     6.89855   3.24145 -29.62527
C     6.53095   2.50909 -28.55907
O     6.72077   1.30907 -28.49052
C     5.93666   3.41869 -27.56913
C     8.07568   3.58707 -26.63635
C     8.15218   2.68162 -25.77562
C     9.09980   1.91225 -24.89138
C     8.55529   1.52751 -23.49829
C     8.91276   2.21675 -22.32952
C     8.48601   1.77605 -21.07181
C     7.69516   0.63187 -20.95337
C     7.32703  -0.06017 -22.11040
C     7.75309   0.38459 -23.36267
C     9.58600   0.62719 -25.60163
C    10.39813  -0.27536 -24.89317
C    10.92525  -1.40764 -25.51582
C    10.64787  -1.66547 -26.86341
C     9.84588  -0.77238 -27.57567
C     9.32573   0.36656 -26.95013
C    10.38325   2.80663 -24.77661
C    10.20566   4.28281 -24.36601
C    10.57300   5.30033 -25.45239
C     9.46894   5.71080 -26.41942
C     8.86571   4.62272 -27.38375
C     9.94185   3.90222 -28.08530
N    10.79343   3.29784 -28.59068
C     8.06155   5.48270 -28.38336
O     7.06175   6.08719 -28.06963
O     8.65413   5.56532 -29.56449
C     8.00438   6.36704 -30.56597
C     5.69775   2.01483 -25.66067
C     5.34443   1.97280 -24.21501
O     4.71217   1.05961 -23.71275
O     5.78892   3.02425 -23.52872
C     5.35170   3.15222 -22.16843
C     5.51986   0.67179 -26.31075
O     6.14897  -0.32922 -26.03661
O     4.46883   0.67121 -27.13797
C     4.21539  -0.54940 -27.84583
N     5.38881   3.13910 -26.37638
C     4.81191   4.33067 -25.71453
H     7.09215   1.73073 -31.05489
H     7.84032   3.32816 -31.41920
H     8.61356   2.21938 -30.23148
H     5.64867   4.37897 -27.98159
H     9.54289   3.10131 -22.37216
H     8.78381   2.33331 -20.18028
H     7.36709   0.28438 -19.97086
H     6.69918  -0.95173 -22.04206
H     7.45519  -0.16534 -24.25331
H    10.61772  -0.09485 -23.83942
H    11.55365  -2.09464 -24.94352
H    11.05453  -2.55516 -27.35019
H     9.61556  -0.95661 -28.62806
H     8.70189   1.04681 -27.52266
H    11.06179   2.29663 -24.07764
H    10.87837   2.76202 -25.75637
H    10.85368   4.47558 -23.49734
H     9.17825   4.47926 -24.02362
H    10.88547   6.23735 -24.96360
H    11.45521   4.94839 -26.01374
H     8.60729   6.11720 -25.87046
H     9.85744   6.51548 -27.06317
H     7.91727   7.40731 -30.22298
H     7.00653   5.95909 -30.77880
H     8.64095   6.30770 -31.45541
H     5.58423   2.24369 -21.60081
H     5.89889   4.00745 -21.75699
H     4.26847   3.34326 -22.13992
H     3.96283  -1.35667 -27.14330
H     5.09683  -0.83732 -28.43553
H     3.36614  -0.34360 -28.50769
H     4.04542   4.02977 -24.99458
H     4.34947   4.95316 -26.48738
H     5.60569   4.89742 -25.21143
