37
Generated by autodE on: 2022-06-11. E = -8451.299911 Ha
C     1.43558   0.79951   2.72187
C     1.46641  -0.09852   1.51604
O     1.83984  -1.25025   1.58259
C     1.20565   0.54262   0.09778
C     2.60795   0.50883  -0.50932
C     3.57024   1.43121  -0.06287
C     4.89114   1.36360  -0.50974
C     5.28433   0.35645  -1.39470
C     4.34575  -0.59004  -1.81173
C     3.02337  -0.52116  -1.36566
N     0.67493   1.92070   0.25665
C     1.05720   2.95780  -0.71721
N    -0.75567   1.77523   0.30334
C    -1.46677   2.68451   1.17388
C    -1.17531   0.50577   0.04224
Br   -1.66309  -0.53671   1.82589
Br   -2.90101   0.42667  -0.95349
C     0.02995  -0.14017  -0.70661
C     0.00035   0.26539  -2.18804
Br   -0.05488  -2.11138  -0.69463
H     0.51593   1.38865   2.79218
H     1.57034   0.18351   3.62030
H     2.27128   1.51434   2.64541
H     3.29557   2.20658   0.65146
H     5.61612   2.09936  -0.15440
H     6.31733   0.30179  -1.74576
H     4.64060  -1.39659  -2.48693
H     2.32398  -1.29143  -1.68352
H     0.24699   3.69667  -0.75374
H     1.23484   2.58940  -1.73779
H     1.95929   3.48012  -0.37692
H    -1.12515   3.71126   0.98853
H    -1.31021   2.43394   2.23657
H    -2.53964   2.63012   0.94923
H    -0.77778  -0.29736  -2.71434
H    -0.22215   1.33268  -2.30031
H     0.96238   0.05996  -2.66856
