9
Generated by autodE on: 2022-06-11. E = -7838.712481 Ha
C    -2.44673  -0.72187   0.04678
C    -1.16350   0.02976  -0.10532
Br   -1.40571   1.81817  -0.73489
C     0.07642  -0.42354   0.15059
Br    1.66582   0.58023  -0.06216
Br    0.37650  -2.19640   0.78010
H    -3.10787  -0.20451   0.76009
H    -2.27480  -1.74383   0.40539
H    -2.97521  -0.77135  -0.91849
