28
Generated by autodE on: 2022-07-27. E = -612.550953 Ha
C    -3.17014  -0.59792   0.59537
N    -2.74443   0.47174  -0.26400
N    -1.48292   0.67933  -0.40382
C    -1.17150   1.55298  -1.56147
C    -0.44812   0.19237   0.36584
C    -0.51518   0.15431   1.81396
C    -1.52405   1.00632   2.55557
O     0.34271  -0.45332   2.47753
C     0.79437  -0.18469  -0.33644
C     2.06499   0.17634   0.15654
C     3.22456  -0.18259  -0.52955
C     3.14565  -0.90535  -1.72635
C     1.89323  -1.27189  -2.22700
C     0.73164  -0.92145  -1.53570
H    -2.37983  -1.35395   0.75720
H    -4.05263  -1.05755   0.12376
H    -3.49941  -0.24670   1.58603
H    -0.14209   1.91483  -1.48999
H    -1.87329   2.39469  -1.52174
H    -1.32245   1.00045  -2.49690
H    -2.12472   1.66657   1.91865
H    -0.95710   1.61467   3.27709
H    -2.20074   0.36219   3.13956
H     2.13968   0.74902   1.08142
H     4.19926   0.11180  -0.13268
H     4.05620  -1.18255  -2.26277
H     1.81872  -1.84360  -3.15524
H    -0.24059  -1.23341  -1.92371
