57
Generated by autodE on: 2022-06-06. E = -1544.886633 Ha
C     4.14805   2.60676   1.72867
N     2.91197   2.25439   1.06134
C     2.75383   1.03770   0.48677
O     3.66884   0.20760   0.37170
N     1.49845   0.76921  -0.00988
N     0.52255   1.77917  -0.11472
C     0.74132   2.72046  -1.23164
C    -0.75051   1.05848  -0.06874
C    -1.27031   0.94440   1.40492
C    -0.31074   1.14133   2.53152
O    -2.45730   0.73748   1.57674
C    -1.88439   1.84632  -0.74961
O    -2.64916   1.41936  -1.58247
O    -1.95676   3.07193  -0.23851
C    -2.99735   3.92762  -0.74062
C    -0.47406  -0.38222  -0.70415
C    -1.46431  -1.42686  -0.19454
C    -1.33248  -2.07992   1.04074
C    -2.28592  -3.00192   1.48014
C    -3.41223  -3.27874   0.70375
C    -3.57905  -2.60876  -0.51086
C    -2.61996  -1.69457  -0.95005
C    -0.41597  -0.39398  -2.30816
C    -0.21786  -1.84669  -2.72911
C     1.06369  -2.11757  -2.46150
C     1.63374  -0.82863  -1.89786
O     0.86832   0.15951  -2.58944
C     1.09368  -0.55855  -0.44111
C     1.52791  -1.58328   0.60909
O     1.70837  -1.33563   1.78353
O     1.66410  -2.79575   0.09287
C     1.99328  -3.86129   0.99828
H     4.27932   2.07312   2.68634
H     5.00762   2.36733   1.08691
H     4.15160   3.68637   1.92771
H     2.06554   2.77983   1.25972
H     0.37138   3.71116  -0.94038
H     1.82024   2.79574  -1.40699
H     0.26560   2.41652  -2.17475
H     0.54469   0.45826   2.43535
H     0.08651   2.16697   2.48919
H    -0.83345   0.97731   3.48223
H    -2.88559   4.87815  -0.20769
H    -3.98193   3.48452  -0.53550
H    -2.87560   4.07747  -1.82260
H    -0.50353  -1.85469   1.70555
H    -2.14561  -3.49582   2.44443
H    -4.15881  -3.99877   1.04658
H    -4.46310  -2.79497  -1.12511
H    -2.79194  -1.17630  -1.89156
H    -1.20731   0.17561  -2.79428
H    -0.99396  -2.51392  -3.09778
H     1.60310  -3.05666  -2.56097
H     2.70984  -0.65153  -1.98220
H     2.93893  -3.64473   1.51387
H     1.18788  -3.98865   1.73571
H     2.08917  -4.76011   0.37923
