28
Generated by autodE on: 2022-06-06. E = -778.168548 Ha
C     3.85517   1.58159   0.26922
N     3.12015   0.34275   0.40296
C     1.91556   0.15879  -0.17122
O     1.33016   1.03755  -0.81956
N     1.47924  -1.16383  -0.02646
N     0.23040  -1.45222  -0.25313
C     0.06023  -2.88034  -0.61919
C    -0.83325  -0.63567  -0.12364
C    -2.15709  -1.01069  -0.67130
C    -3.38876  -0.36091  -0.08832
O    -2.26350  -1.83226  -1.57796
C    -0.67795   0.60164   0.69216
O    -0.04573   0.65227   1.73096
O    -1.36826   1.62408   0.19701
C    -1.33869   2.84575   0.94979
H     3.17277   2.43676   0.37355
H     4.61654   1.63541   1.05777
H     4.35823   1.66378  -0.70983
H     3.56982  -0.46736   0.81740
H     0.06065  -2.97017  -1.71147
H    -0.87172  -3.27652  -0.20906
H     0.92746  -3.39896  -0.20084
H    -3.58057   0.59461  -0.60002
H    -3.29172  -0.15328   0.98659
H    -4.24098  -1.02927  -0.27067
H    -1.73496   2.68442   1.96240
H    -1.97149   3.55215   0.40099
H    -0.30825   3.22353   1.01211
