29
Generated by autodE on: 2022-06-06. E = -766.672250 Ha
C    -3.33909   2.71879   0.36965
O    -2.75761   1.41161   0.42290
C    -1.41299   1.34864   0.51621
O    -0.71717   2.35142   0.55704
C    -0.97127  -0.04256   0.54703
C     0.21568  -0.62381   0.22384
C     1.52848  -0.12822  -0.16826
C     2.33831  -0.93350  -1.00007
C     3.59571  -0.49479  -1.41219
C     4.08271   0.74394  -0.98227
C     3.29996   1.54238  -0.14093
C     2.03462   1.11702   0.26066
C    -0.12280  -2.14764   0.20124
C    -1.02022  -2.38870  -1.02995
C    -2.18333  -1.80953  -0.71728
C    -1.96519  -1.22413   0.69408
O    -1.08610  -2.20825   1.25940
H    -2.98373   3.26572  -0.51613
H    -3.08692   3.29210   1.27394
H    -4.42297   2.56581   0.30862
H     1.97312  -1.90284  -1.34365
H     4.20106  -1.12549  -2.06711
H     5.07228   1.08341  -1.29703
H     3.68000   2.50572   0.20708
H     1.42694   1.74184   0.91126
H     0.71595  -2.83112   0.36501
H    -0.70084  -2.87177  -1.95251
H    -3.08747  -1.68779  -1.31255
H    -2.84771  -1.04471   1.31470
