25
Generated by autodE on: 2022-10-26. E = -610.379101 Ha
C     0.58383  -2.72785  -0.79641
C     0.08662  -1.30216  -0.85731
O    -0.19892  -0.81451  -1.96646
C    -0.06111  -0.54942   0.37427
C     0.34800  -0.97359   1.69048
C     0.22732   0.00775   2.84590
O     0.83791  -2.09203   1.92394
N    -0.75459   0.68318   0.23037
C    -2.05332   0.86140   0.90029
C    -0.39088   1.55451  -0.68048
C    -1.26049   2.67790  -1.12904
C     0.93922   1.47861  -1.20664
N     2.01791   1.53727  -1.63579
H    -0.00567  -3.33764  -0.09859
H     0.53789  -3.14903  -1.80967
H     1.62187  -2.75059  -0.43182
H    -0.69622  -0.20250   3.41013
H     1.07292  -0.16584   3.52636
H     0.21366   1.06290   2.54318
H    -2.85397   0.77806   0.14979
H    -2.18082   0.06760   1.63933
H    -2.10419   1.84735   1.37944
H    -0.77817   3.24015  -1.93622
H    -2.23069   2.29058  -1.47836
H    -1.45799   3.35969  -0.28521
