25
Generated by autodE on: 2022-10-21. E = -610.379047 Ha
C     1.87961  -1.91859   0.98382
C     1.85670  -0.69251   0.08462
O     2.94525  -0.19728  -0.25464
C     0.58306  -0.13163  -0.29376
C     0.37320   1.08867  -1.05030
C     1.56485   1.80435  -1.64260
O    -0.76333   1.55910  -1.24180
N    -0.60682  -0.84943   0.00415
C    -0.80625  -2.18726  -0.57656
C    -1.63014  -0.24672   0.56254
C    -3.00827  -0.81255   0.56525
C    -1.39715   0.97075   1.28025
N    -1.29044   1.92143   1.94060
H     2.02135  -2.82209   0.36803
H     2.75190  -1.83502   1.64737
H     0.97303  -2.05220   1.58833
H     2.20632   2.19646  -0.83895
H     2.19188   1.13126  -2.24236
H     1.19324   2.63561  -2.25675
H    -1.52741  -2.11063  -1.40421
H     0.14579  -2.54628  -0.97317
H    -1.19433  -2.87872   0.18212
H    -3.32775  -1.03783  -0.46451
H    -3.02648  -1.75712   1.13400
H    -3.71357  -0.10941   1.02211
