18
Generated by autodE on: 2022-10-21. E = -423.102467 Ha
C    -4.17199  -0.38833   0.65046
O    -3.33781   0.69317   0.16681
C    -2.06700   0.45125   0.09754
C    -0.86704   0.26597   0.01648
C     0.54391   0.04963  -0.08253
C     1.39008   1.04626  -0.61542
C     2.76495   0.82999  -0.71068
C     3.32402  -0.37803  -0.27974
C     2.49425  -1.37235   0.24985
C     1.11836  -1.16532   0.34992
H    -4.08140  -1.25627  -0.01902
H    -5.19877  -0.00511   0.64312
H    -3.87175  -0.66197   1.67259
H     0.95718   1.98993  -0.95339
H     3.40543   1.61203  -1.12571
H     4.40102  -0.54392  -0.35636
H     2.92227  -2.31881   0.58903
H     0.47387  -1.94327   0.76417
