20
Generated by autodE on: 2022-06-16. E = -552.846216 Ha
C    -3.07966   0.15838  -0.29702
C    -1.90590  -0.78723  -0.27979
O    -2.04173  -2.00620  -0.42515
C    -0.61052  -0.16825  -0.08081
O    -0.49746   1.16850   0.06993
C     0.85827   1.51028   0.24525
O     1.20089   2.67439   0.40296
C     1.55254   0.27005   0.18752
C     3.00961   0.03522   0.31390
N     0.62136  -0.70288  -0.00874
C     0.96216  -2.12150  -0.11837
H    -2.96249   0.90748  -1.09609
H    -3.14703   0.70756   0.65562
H    -3.99892  -0.41823  -0.45955
H     3.42975  -0.43493  -0.59110
H     3.51108   1.00025   0.46784
H     3.24692  -0.62035   1.16856
H     1.47872  -2.43202   0.79935
H     1.63505  -2.25846  -0.97524
H     0.04350  -2.69440  -0.25661
