47
Generated by autodE on: 2022-05-31. E = -1185.339008 Ha
C    -2.90107  -2.60876   0.95802
O    -2.06474  -1.77831   0.14327
C    -0.87523  -1.44045   0.64793
O    -0.44164  -1.91458   1.67565
C    -0.10427  -0.55497  -0.32748
C     0.11213  -1.37274  -1.65708
C     0.63543  -2.78506  -1.31046
C     2.08062  -2.51166  -0.80377
C     2.23495  -0.98993  -1.00079
C     1.38354  -0.74914  -2.25516
C     1.40070  -0.23371   0.08681
C     1.84992  -0.63486   1.42102
N     2.37073  -0.87026   2.43195
C     1.53942   1.33442  -0.08241
C     1.76484   2.03153   1.26670
C     3.18874   2.30880   1.64342
O     0.82078   2.35390   1.96533
N     0.34307   1.81115  -0.73865
C    -0.75240   0.87933  -0.56145
C    -1.60826   1.36820   0.63281
C    -2.07518   2.79786   0.58439
O    -1.88602   0.63880   1.56480
C    -1.62686   0.93244  -1.85551
C    -3.04314   0.46081  -1.79712
O    -1.12763   1.38093  -2.86940
H    -3.12179  -2.10466   1.91002
H    -3.82370  -2.76079   0.38625
H    -2.41194  -3.57305   1.15617
H    -0.77833  -1.38694  -2.29485
H     0.64603  -3.38700  -2.22998
H     0.01579  -3.32487  -0.58294
H     2.23127  -2.81677   0.24127
H     2.82793  -3.04063  -1.41164
H     3.27218  -0.63362  -1.02291
H     1.75153  -1.32342  -3.11765
H     1.28873   0.29889  -2.55582
H     2.41233   1.54240  -0.71388
H     3.84104   1.46166   1.38584
H     3.52968   3.16962   1.04073
H     3.26933   2.55626   2.70977
H     0.48948   1.95332  -1.73669
H    -2.09546   3.21125  -0.43229
H    -1.37284   3.39988   1.18020
H    -3.06851   2.86576   1.04951
H    -3.63304   1.17650  -1.19988
H    -3.45959   0.41217  -2.81093
H    -3.10632  -0.51002  -1.29008
