23
Generated by autodE on: 2022-07-27. E = -592.162723 Ha
C     3.16334   0.84825   2.03439
C     1.88031   0.43895   1.36182
O     0.99557  -0.17696   1.96100
C     1.79489   0.73884  -0.06203
N     0.81387   0.32686  -0.85192
C    -0.43091  -0.15333  -0.64478
C    -1.22957   0.11623   0.56773
C    -1.14021   1.48760   1.19433
O    -2.07979  -0.68226   0.95215
C    -0.98730  -0.76750  -1.86154
C    -2.37250  -1.34791  -1.85184
O    -0.29852  -0.78110  -2.89053
H     4.02479   0.35840   1.55211
H     3.30836   1.93585   1.92599
H     3.13017   0.57848   3.09754
H     2.67442   1.12322  -0.57874
H     1.03895   0.27567  -1.86125
H    -2.08887   2.00077   0.96347
H    -1.06320   1.39082   2.28643
H    -0.31090   2.10259   0.82262
H    -2.41624  -2.20784  -1.16717
H    -3.10801  -0.61558  -1.48651
H    -2.63030  -1.66660  -2.87007
