24
Generated by autodE on: 2022-05-31. E = -593.135200 Ha
C     3.40327  -0.87081  -1.33118
O     2.08289  -1.02751  -0.79211
C     1.51195   0.06441  -0.27213
O     2.05319   1.15526  -0.23108
C     0.15780  -0.21672   0.23718
C    -0.75033   0.72242   0.61252
C    -0.59878   2.13214   0.60732
N    -0.54175   3.29534   0.63535
C    -2.06788   0.00305   0.87294
C    -2.57397  -0.44110  -0.53913
C    -1.53394  -1.51467  -0.96266
C    -0.55215  -1.55382   0.25641
C    -1.53326  -1.33367   1.42724
H     3.69684  -1.85879  -1.70355
H     4.09907  -0.53495  -0.54878
H     3.39760  -0.13945  -2.15243
H    -2.79541   0.56237   1.47134
H    -2.63050   0.40738  -1.23486
H    -3.58161  -0.87036  -0.44310
H    -2.00119  -2.50207  -1.08721
H    -1.00783  -1.26653  -1.89474
H     0.10311  -2.43015   0.29035
H    -1.02866  -1.22623   2.39833
H    -2.30995  -2.10962   1.49088
