47
Generated by autodE on: 2022-05-31. E = -1185.287041 Ha. Imaginary frequency = -297.1 cm-1
C    -2.68434  -2.57564   1.32669
O    -1.74615  -2.07209   0.36885
C    -0.73075  -1.33977   0.84853
O    -0.55160  -1.15347   2.03831
C     0.15496  -0.85149  -0.23553
C     0.21067  -1.57172  -1.58766
C     0.89976  -2.94284  -1.29651
C     2.37494  -2.54436  -1.00035
C     2.34918  -0.99444  -1.14785
C     1.35814  -0.84085  -2.30997
C     1.51335  -0.48652   0.04286
C     2.10066  -0.64247   1.33378
N     2.68109  -0.79244   2.33309
C     1.39698   1.82560  -0.19253
C     1.39962   2.01567   1.27093
C     2.72375   2.38832   1.87173
O     0.38520   1.88815   1.94978
N     0.28163   1.81717  -0.94340
C    -0.88939   1.17136  -0.66120
C    -1.74066   1.57340   0.52187
C    -1.87968   3.05532   0.75978
O    -2.45529   0.76966   1.09396
C    -1.65300   0.85079  -1.91633
C    -3.00329   0.21319  -1.80416
O    -1.13444   1.09776  -3.00030
H    -3.16976  -1.74364   1.85572
H    -2.18113  -3.22969   2.05326
H    -3.42499  -3.14542   0.75371
H    -0.74322  -1.65823  -2.11709
H     0.82778  -3.58085  -2.18938
H     0.42079  -3.47746  -0.46513
H     2.71620  -2.86017  -0.00421
H     3.06516  -2.97179  -1.74223
H     3.33321  -0.52169  -1.24684
H     1.68840  -1.38367  -3.20708
H     1.14468   0.19062  -2.59867
H     2.30373   2.10345  -0.73228
H     3.55854   1.88152   1.36813
H     2.86207   3.47474   1.72709
H     2.72514   2.16531   2.94596
H     0.43851   1.86366  -1.95679
H    -2.70124   3.40297   0.10791
H    -2.16701   3.23310   1.80477
H    -0.98086   3.62538   0.50191
H    -2.97059  -0.64955  -1.12532
H    -3.72082   0.93467  -1.38073
H    -3.33936  -0.09108  -2.80316
