33
Generated by autodE on: 2022-06-17. E = -690.326859 Ha
C     3.68344  -0.08518   1.10834
N     2.24137  -0.11168   0.97198
C     1.62025   0.28143  -0.14439
O     2.20955   0.68328  -1.15703
C     0.08850   0.22199  -0.12353
C    -0.37549   1.66602  -0.46279
C     0.02403   2.74027   0.50840
O    -1.01981   1.90689  -1.46510
N    -0.43665  -0.12262   1.21079
C    -1.40982  -0.94871   1.07887
C    -2.17919  -1.48304   2.23769
C    -1.74018  -1.34112  -0.34623
C    -3.07461  -0.74467  -0.81306
C    -0.49159  -0.83652  -1.11216
C     0.46803  -1.98462  -1.42247
H     4.06676   0.94743   1.16249
H     3.96643  -0.61448   2.02648
H     4.16159  -0.57942   0.24980
H     1.64907  -0.34950   1.76316
H    -0.52812   3.66501   0.29646
H    -0.14083   2.41194   1.54341
H     1.10367   2.93473   0.39410
H    -2.13313  -2.58460   2.24292
H    -3.24351  -1.21235   2.14024
H    -1.79407  -1.09418   3.18951
H    -1.81639  -2.43937  -0.40797
H    -3.26342  -1.01663  -1.86288
H    -3.06904   0.35287  -0.74079
H    -3.91185  -1.12632  -0.20877
H    -0.77781  -0.33675  -2.04542
H     1.36309  -1.63402  -1.95499
H     0.79293  -2.49437  -0.50146
H    -0.03416  -2.72989  -2.05845
