58
Generated by autodE on: 2022-06-14. E = -6956.856712 Ha
C     5.46392   3.40012  -3.25406
O     4.45877   3.73776  -2.28474
C     4.58079   4.90771  -1.66628
O     5.50726   5.66494  -1.82911
C     3.45463   5.07258  -0.62071
C     3.18119   6.50113  -0.11130
C     3.70604   7.66569  -0.68124
C     3.39526   8.91756  -0.13929
C     2.56305   9.02419   0.97584
C     2.04617   7.86223   1.55770
C     2.35934   6.61459   1.02180
N     4.06473   4.36190   0.49873
C     3.29971   3.38993   0.83608
C     3.79295   2.51546   1.94253
C     3.38541   2.69111   3.27042
C     3.94593   1.91066   4.28606
C     4.92296   0.95908   3.98490
C     5.35765   0.80447   2.66329
C     4.80335   1.58472   1.64994
C     2.05442   3.29727  -0.02028
C     2.15472   4.29359  -0.96433
C     1.20880   4.74140  -2.11290
C     1.95507   5.40677  -3.31507
F     1.07348   6.03451  -4.11279
F     2.87179   6.32509  -2.98540
F     2.57635   4.48570  -4.06379
C     0.19170   5.79938  -1.55414
F    -0.89895   5.90713  -2.32585
F     0.71813   7.02921  -1.47086
F    -0.22762   5.45094  -0.32912
C     0.36834   3.62392  -2.83066
C     0.91384   2.19549  -2.78906
C     0.04001   1.34648  -1.86936
C    -0.24292   2.01086  -0.52196
C     0.97034   2.30160   0.35152
Br    1.77097   0.50480   0.72572
Br    0.19808   3.00259   2.08413
H     6.44654   3.31656  -2.76897
H     5.16094   2.43442  -3.67321
H     5.50077   4.16580  -4.04117
H     4.35718   7.61204  -1.54873
H     3.81152   9.81594  -0.60123
H     2.32022  10.00478   1.39179
H     1.39555   7.92507   2.43292
H     1.94006   5.72165   1.48735
H     2.63784   3.44424   3.51488
H     3.61955   2.05504   5.31861
H     5.35632   0.34722   4.77962
H     6.13416   0.07470   2.42254
H     5.13784   1.46448   0.61750
H    -0.64442   3.63482  -2.41983
H     0.22720   3.94396  -3.86753
H     0.89774   1.76957  -3.80247
H     1.96569   2.17373  -2.47036
H     0.47753   0.34971  -1.71961
H    -0.94037   1.19303  -2.34966
H    -0.79170   2.95256  -0.65194
H    -0.90468   1.36137   0.06546
