32
Generated by autodE on: 2022-06-14. E = -823.066743 Ha
C    -1.16231   3.96239  -0.61566
O    -0.75975   2.60838  -0.41026
C    -1.76067   1.69506  -0.27139
O    -2.94212   2.03007  -0.32516
C    -1.25552   0.35710  -0.06327
N     0.08265   0.23942  -0.03436
C     1.24501   0.14107  -0.01036
C     2.65260   0.04376   0.00992
C     3.43016   1.20906  -0.17642
C     4.81842   1.10903  -0.15693
C     5.43875  -0.12984   0.04479
C     4.66402  -1.28146   0.22901
C     3.27383  -1.20843   0.21387
C    -2.05160  -0.85990   0.12067
C    -3.46525  -0.85250   0.08034
C    -4.19204  -2.03031   0.25982
C    -3.54541  -3.24986   0.48407
C    -2.14718  -3.27244   0.52506
C    -1.41149  -2.10168   0.34656
H    -0.23657   4.54584  -0.69288
H    -1.74648   4.06534  -1.54283
H    -1.76513   4.32898   0.22898
H     2.93603   2.16901  -0.33345
H     5.42230   2.00737  -0.30112
H     6.52851  -0.19812   0.05826
H     5.14803  -2.24761   0.38634
H     2.66237  -2.10059   0.35651
H    -3.98703   0.08537  -0.09332
H    -5.28390  -1.98987   0.22275
H    -4.12055  -4.16783   0.62432
H    -1.61858  -4.21334   0.69838
H    -0.32189  -2.15472   0.38395
