26
Generated by autodE on: 2022-06-14. E = -6133.700281 Ha
F    -0.41218  -3.51043  -1.10857
C    -1.22253  -2.51286  -1.48543
F    -2.36568  -3.05578  -1.91974
F    -0.64214  -1.89969  -2.52582
C    -1.47142  -1.49864  -0.33967
C    -2.02604  -2.23134   0.90907
F    -3.16583  -2.87700   0.63247
F    -2.28318  -1.36183   1.89497
F    -1.15484  -3.12827   1.38888
C    -0.23048  -0.81204   0.00195
C     0.52290   0.10673   0.23199
C     0.94522   1.47637   0.34505
Br    2.12505   1.74507   1.91803
Br    1.98045   1.94985  -1.29628
C    -0.30445   2.36922   0.45925
C    -1.43904   2.03619  -0.53220
C    -2.47218   0.95734  -0.10088
C    -2.47566  -0.39818  -0.83717
H     0.02004   3.41336   0.34450
H    -0.67947   2.25880   1.48901
H    -1.01642   1.79446  -1.52108
H    -1.98866   2.97851  -0.67292
H    -2.42276   0.80359   0.98638
H    -3.47178   1.37635  -0.28953
H    -2.25394  -0.22247  -1.89909
H    -3.48146  -0.83935  -0.79236
