58
Generated by autodE on: 2022-06-14. E = -6956.765384 Ha. Imaginary frequency = -207.5 cm-1
C     5.75463   3.28957  -2.69172
O     4.97090   3.74595  -1.58221
C     4.79923   5.07051  -1.47255
O     5.29278   5.86534  -2.24890
C     3.95606   5.42063  -0.29173
C     3.52259   6.78469   0.06756
C     3.81962   7.91539  -0.71596
C     3.33557   9.17329  -0.35108
C     2.55422   9.33250   0.79600
C     2.26030   8.21450   1.58561
C     2.73952   6.95728   1.22822
N     3.89403   4.48128   0.61656
C     3.44762   3.47419   1.11239
C     3.98139   2.53623   2.09147
C     3.48018   2.45452   3.39855
C     4.03311   1.53556   4.29219
C     5.06626   0.68664   3.88505
C     5.56682   0.77237   2.58026
C     5.03592   1.69710   1.68405
C     1.62863   3.25286  -0.24536
C     1.64804   4.13395  -1.12617
C     0.92970   4.71314  -2.29117
C     1.91213   5.25104  -3.36118
F     1.28210   5.64581  -4.47799
F     2.62953   6.29699  -2.94013
F     2.77411   4.27943  -3.71437
C     0.03167   5.86888  -1.77784
F    -0.69480   6.40038  -2.77370
F     0.72792   6.86379  -1.21553
F    -0.82790   5.41770  -0.85168
C     0.00154   3.65240  -2.98473
C     0.51048   2.20252  -2.95096
C    -0.23548   1.30798  -1.95265
C    -0.41110   1.81861  -0.51794
C     0.86115   2.12403   0.28145
Br    1.97729   0.47448   0.36526
Br    0.25528   2.58054   2.14191
H     6.78179   3.67631  -2.62366
H     5.75657   2.19556  -2.62586
H     5.30320   3.61310  -3.63985
H     4.42164   7.80493  -1.61350
H     3.57475  10.03828  -0.97439
H     2.17764  10.31918   1.07531
H     1.65016   8.32260   2.48542
H     2.48985   6.09386   1.84713
H     2.67186   3.11271   3.71270
H     3.64856   1.48138   5.31308
H     5.48603  -0.03921   4.58512
H     6.38018   0.11735   2.25989
H     5.41963   1.77099   0.66514
H    -0.97959   3.70441  -2.49616
H    -0.16534   3.97993  -4.01760
H     0.37663   1.76279  -3.95074
H     1.59193   2.17500  -2.75888
H     0.24341   0.31724  -1.93022
H    -1.25922   1.14565  -2.32984
H    -1.00155   2.74715  -0.50783
H    -0.98800   1.07196   0.04604
