25
Generated by autodE on: 2022-07-27. E = -577.053699 Ha
C    -4.05353  -0.85376  -1.62660
C    -2.63159  -0.40296  -1.35286
O    -2.01031   0.28243  -2.20901
C    -2.07621  -0.79502  -0.11221
C    -2.76894  -1.60687   0.93482
O    -0.81289  -0.44424   0.22961
C     0.09252   0.24411  -0.38710
C     1.36210   0.43988   0.25077
C     1.66730  -0.08591   1.52894
C     2.91843   0.13665   2.09370
C     3.88672   0.88168   1.40421
C     3.59464   1.40647   0.13943
C     2.34491   1.19001  -0.43580
H    -4.74971  -0.46963  -0.86318
H    -4.36146  -0.48324  -2.61371
H    -4.13542  -1.95291  -1.61178
H    -2.09079  -1.77291   1.78373
H    -3.08498  -2.59392   0.55516
H    -3.67580  -1.10747   1.31833
H    -0.14820   0.64641  -1.37010
H     0.91420  -0.66563   2.06537
H     3.14737  -0.27224   3.08055
H     4.86734   1.05180   1.85434
H     4.34714   1.98681  -0.39917
H     2.11171   1.59666  -1.42275
