20
Generated by autodE on: 2022-06-20. E = -457.715323 Ha
C     3.10185  -0.66759   0.15164
N     1.82146  -0.06166  -0.17535
C     1.79091   1.17646  -0.82940
C     0.64910   1.83779  -1.07643
C    -0.70887   1.31838  -0.67298
C    -0.57467  -0.01106   0.05178
C    -1.75439  -0.72740   0.56325
N    -2.95335  -0.12595   0.35884
O    -1.69012  -1.82581   1.15215
C     0.64146  -0.59324   0.25112
H     2.93690  -1.68250   0.53481
H     3.64126  -0.08566   0.91834
H     3.73814  -0.73173  -0.74436
H     2.76724   1.56235  -1.12827
H     0.70614   2.79537  -1.59907
H    -1.35888   1.21780  -1.56647
H    -1.22817   2.06538  -0.03825
H    -3.04556   0.77246  -0.09760
H    -3.78963  -0.58155   0.70737
H     0.70898  -1.54719   0.77655
