33
Generated by autodE on: 2022-05-30. E = -3501.296227 Ha
C     4.25698   1.65035   0.99153
N     3.07668   0.80368   1.03864
C     2.41695   0.47581  -0.07093
O     2.72619   0.78605  -1.21530
C     1.14245  -0.38810   0.12901
C     1.26180  -1.58823  -0.72486
N     1.40202  -2.58756  -1.29466
O     1.03688  -0.81637   1.48498
N    -0.31965  -1.16551   1.71161
C    -0.51627  -2.48994   1.75959
N    -0.69723  -3.63225   1.90349
C    -1.19253  -0.25534   0.91232
C    -2.28332  -1.01997   0.31712
N    -3.17239  -1.62196  -0.11849
C    -1.66684   0.95029   1.76695
C    -2.52733   1.87344   0.87856
C    -1.47496   2.59699  -0.00808
C    -0.15202   1.89818   0.37031
C    -0.35999   1.75075   1.89489
C    -0.17600   0.42526  -0.12034
Br   -0.68205   0.26727  -2.00813
H     4.71604   1.66904   1.98660
H     3.99573   2.67881   0.69612
H     4.98182   1.25504   0.26549
H     2.69544   0.51887   1.93684
H    -2.14614   0.60931   2.69136
H    -3.27362   1.31863   0.29193
H    -3.07530   2.58014   1.51560
H    -1.70126   2.55096  -1.07895
H    -1.38701   3.65669   0.26674
H     0.74344   2.43207   0.03349
H     0.44040   1.23536   2.43446
H    -0.52834   2.72805   2.36694
