15
Generated by autodE on: 2022-05-30. E = -562.480072 Ha
C     3.68356  -0.47178   0.80673
N     2.26051  -0.59637   0.55436
C     1.49319   0.43861   0.19807
O     1.85375   1.60373   0.03248
C     0.03469   0.12635  -0.01926
C    -0.81189   1.20249  -0.40145
N    -1.42478   2.14191  -0.70967
O    -0.34529  -1.08782   0.15922
N    -1.53030  -1.71079   0.06076
C    -2.56822  -0.96354  -0.30089
N    -3.60526  -0.50563  -0.60262
H     3.98661   0.56797   0.64073
H     3.91672  -0.75392   1.84472
H     4.25233  -1.12635   0.12922
H     1.82974  -1.51184   0.65579
