18
Generated by autodE on: 2022-05-30. E = -2938.734762 Ha
N     3.17181  -0.95243  -0.08412
C     2.02835  -0.88498  -0.30083
C     0.64598  -0.82818  -0.58861
C    -0.23457   0.14156  -0.24150
Br    0.13206   1.70873   0.72074
C    -1.62836  -0.32903  -0.58761
C    -1.94363  -1.46827   0.43984
C    -0.95703  -2.59752   0.02895
C    -0.19062  -1.97011  -1.17657
C    -1.31513  -1.15852  -1.85229
H    -2.38817   0.45700  -0.65796
H    -1.80926  -1.12925   1.47645
H    -2.99060  -1.78091   0.31904
H    -1.49398  -3.49828  -0.30191
H    -0.27254  -2.88766   0.83789
H     0.37203  -2.67960  -1.79377
H    -2.16300  -1.78296  -2.16977
H    -0.96149  -0.54488  -2.69287
