33
Generated by autodE on: 2022-05-30. E = -3501.227025 Ha. Imaginary frequency = -223.7 cm-1
C     4.14138   1.56932   0.70551
N     3.08423   0.58965   0.87903
C     2.52223  -0.01374  -0.17477
O     2.86330   0.13047  -1.34841
C     1.36913  -0.92874   0.11791
C     0.98396  -1.86789  -0.88746
N     0.69474  -2.66251  -1.68406
O     1.07988  -1.19121   1.36847
N    -0.09952  -1.86209   1.54413
C    -0.37335  -1.93734   2.84229
N    -0.74930  -2.06639   3.94363
C    -1.42223  -0.12161   0.49988
C    -2.31624  -1.10676   0.00272
N    -3.06582  -1.90524  -0.38907
C    -1.72031   0.75432   1.70844
C    -2.56171   1.93407   1.11419
C    -1.51877   2.72925   0.28102
C    -0.21134   1.88851   0.45190
C    -0.36253   1.45074   1.92186
C    -0.49145   0.58234  -0.28015
Br   -0.53320   0.57509  -2.17870
H     3.76062   2.48331   0.22133
H     4.94708   1.15809   0.08035
H     4.54650   1.82840   1.69051
H     2.68680   0.44626   1.80304
H    -2.17742   0.23552   2.55749
H    -2.96295   2.53208   1.94445
H    -3.40957   1.57211   0.51608
H    -1.80275   2.84731  -0.77282
H    -1.34594   3.73018   0.69995
H     0.71225   2.39833   0.15588
H     0.43278   0.79939   2.29520
H    -0.45406   2.31357   2.59546
