23
Generated by autodE on: 2022-06-23. E = -351.521384 Ha
C    -3.64821  -0.90704  -0.40908
C    -2.58100  -0.15479  -0.06126
C    -2.75205   1.20196   0.57282
C    -1.22797  -0.65368  -0.29904
C    -0.07894   0.00234   0.00136
C     1.23972  -0.53893  -0.25719
C     2.43253   0.04946   0.01238
C     2.58902   1.40290   0.64570
C     3.72370  -0.64473  -0.31774
H    -4.67137  -0.55847  -0.24320
H    -3.52033  -1.89166  -0.86939
H    -2.27108   1.24071   1.56435
H    -3.81511   1.45330   0.69453
H    -2.27758   1.98848  -0.03729
H    -1.15770  -1.64553  -0.76166
H    -0.14106   0.99151   0.46277
H     1.26032  -1.53235  -0.72149
H     1.63654   1.89872   0.87298
H     3.17370   2.06775  -0.01441
H     3.16598   1.32066   1.58386
H     4.33170  -0.03270  -1.00811
H     4.33839  -0.78048   0.59032
H     3.56067  -1.63026  -0.77814
