29
Generated by autodE on: 2022-07-27. E = -837.094772 Ha
C    -3.76842  -1.58729   0.20993
N    -2.43604  -1.02353   0.18484
C    -2.00514  -0.24221   1.19788
O    -2.71733   0.01999   2.17757
C    -0.62436   0.29296   1.07897
O     0.16954   0.10262   0.04517
N    -0.09952  -0.58808  -1.03088
C     0.96843  -0.56654  -1.91050
C     2.18626   0.11656  -1.68490
C     3.18665   0.06017  -2.64822
C     2.99851  -0.66400  -3.83550
C     1.79252  -1.33899  -4.05831
C     0.77894  -1.29437  -3.10538
C     0.09161   1.12724   2.07101
O     1.21294   1.56777   1.87141
O    -0.58914   1.34401   3.19487
C     0.06589   2.14551   4.18833
H    -4.53712  -0.79804   0.24315
H    -3.91491  -2.18896  -0.69517
H    -3.91351  -2.22919   1.09378
H    -1.80886  -1.18339  -0.60499
H     2.32926   0.67843  -0.76212
H     4.12793   0.58683  -2.47556
H     3.79273  -0.70014  -4.58418
H     1.64215  -1.90315  -4.98120
H    -0.16758  -1.81485  -3.26278
H    -0.63765   2.21521   5.02584
H     0.28710   3.14701   3.79169
H     1.00100   1.66743   4.51438
