48
Generated by autodE on: 2022-06-03. E = -1269.317547 Ha
C     3.15179  -0.90215  -2.70292
O     2.34280  -0.20580  -1.74529
C     2.44110  -0.60899  -0.47123
O     3.15069  -1.53161  -0.11116
C     1.64987   0.21584   0.44389
C     1.16125   1.45968   0.29807
F     1.11736   2.23206  -0.76981
C     0.53183   1.85685   1.61808
O     1.37522   1.15477   2.53407
C     1.28572  -0.13612   1.88441
C    -0.25477  -0.38447   2.02338
C    -0.80543   1.03447   1.74139
C    -1.58938   0.83975   0.46093
C    -2.19715   1.96799  -0.27310
C    -2.18696   3.26425   0.27135
C    -2.75096   4.33332  -0.42949
C    -3.32986   4.12238  -1.68327
C    -3.34688   2.83408  -2.23378
C    -2.78756   1.76679  -1.53532
N    -1.64761  -0.37162   0.04390
C    -1.02170  -1.29001   1.01234
C    -2.17345  -2.00680   1.74454
C    -0.15210  -2.33192   0.31942
C     0.57274  -3.24952   1.09756
C     1.35382  -4.23716   0.49611
C     1.42076  -4.32829  -0.89865
C     0.70100  -3.42242  -1.68079
C    -0.07883  -2.43080  -1.07618
H     2.88127  -1.96692  -2.73243
H     2.94399  -0.43156  -3.67088
H     4.21810  -0.80219  -2.45300
H     0.47267   2.92801   1.83381
H     1.93231  -0.87213   2.37005
H    -0.43833  -0.70143   3.05616
H    -1.41577   1.45732   2.55053
H    -1.74602   3.44497   1.25242
H    -2.73720   5.33438   0.00731
H    -3.76845   4.95875  -2.23257
H    -3.79877   2.66450  -3.21391
H    -2.79821   0.76245  -1.95983
H    -1.77845  -2.72141   2.48072
H    -2.80179  -1.27218   2.27162
H    -2.80021  -2.55338   1.02463
H     0.53055  -3.18674   2.18742
H     1.91649  -4.93694   1.11880
H     2.03358  -5.09951  -1.37124
H     0.74670  -3.48254  -2.77078
H    -0.63042  -1.72017  -1.69009
