29
Generated by autodE on: 2022-06-03. E = -634.411622 Ha
C    -1.04658  -2.67050   1.28761
C    -0.97808  -1.24598   0.80469
N     0.02012  -0.51110   1.13956
C     0.87903   0.29309   1.50674
C     2.11056   0.56822   0.74987
C     3.14461   1.29203   1.36872
C     4.32036   1.58020   0.67278
C     4.46392   1.16662  -0.65547
C     3.43383   0.45683  -1.28728
C     2.26692   0.15279  -0.58907
C    -2.04451  -0.66657  -0.03140
C    -1.96453   0.66293  -0.49972
C    -2.98218   1.20556  -1.28155
C    -4.10201   0.43622  -1.62237
C    -4.19032  -0.88323  -1.16929
C    -3.17527  -1.43191  -0.38235
H    -0.16014  -2.91462   1.88753
H    -1.94454  -2.83435   1.90639
H    -1.10056  -3.37456   0.44137
H     3.01268   1.62139   2.40175
H     5.12307   2.13541   1.16328
H     5.37953   1.40077  -1.20391
H     3.54691   0.13884  -2.32647
H     1.46136  -0.40351  -1.07489
H    -1.09294   1.27147  -0.25067
H    -2.89997   2.23716  -1.63258
H    -4.89686   0.86255  -2.23864
H    -5.05841  -1.49417  -1.42873
H    -3.26752  -2.46250  -0.03763
