59
Generated by autodE on: 2022-06-25. E = -1400.671465 Ha
C     3.87933  -4.12112   1.30080
C     3.08488  -3.51453   0.39593
C     3.00918  -3.97907  -1.03456
C     2.27298  -2.36125   0.79914
C     1.43984  -1.68023  -0.00756
C     0.64986  -0.49271   0.44289
C     0.94502   0.83286  -0.36820
C     1.79402   0.54084  -1.61885
O     3.00267   0.65146  -1.64407
O     1.07170   0.12141  -2.64906
C     1.79704  -0.27797  -3.82414
C     1.76154   1.83304   0.47693
O     1.52045   3.02314   0.49107
O     2.73328   1.26192   1.17180
C     3.54274   2.12317   1.99034
N    -0.35804   1.36922  -0.70201
C    -1.36284   0.85642   0.23877
C    -1.17707   1.69338   1.52677
O    -0.45384   1.41893   2.46497
O    -1.79233   2.87421   1.42010
C    -1.51232   3.84623   2.43910
C    -2.77998   1.00333  -0.29185
C    -3.86902   0.81726   0.57362
C    -5.17851   0.88049   0.09399
C    -5.41894   1.13801  -1.26024
C    -4.33923   1.33312  -2.12534
C    -3.02788   1.26443  -1.64396
C    -0.90729  -0.64237   0.38552
C    -1.35357  -1.44513  -0.84653
C    -1.43471  -1.35851   1.63009
H     4.50070  -4.97971   1.03103
H     3.92664  -3.77086   2.33645
H     1.98024  -4.27043  -1.30354
H     3.67028  -4.83925  -1.21035
H     3.29726  -3.17025  -1.72704
H     2.37691  -2.03959   1.84188
H     1.33044  -1.98559  -1.05047
H     0.91438  -0.29020   1.48369
H     1.03941  -0.58649  -4.55293
H     2.46577  -1.11831  -3.58790
H     2.38565   0.56371  -4.21468
H     4.28530   1.47359   2.46684
H     2.91873   2.61410   2.75056
H     4.03855   2.88260   1.36962
H    -0.35162   2.38631  -0.76751
H    -1.80321   3.46373   3.42753
H    -0.44096   4.09348   2.43897
H    -2.10754   4.73015   2.18311
H    -3.69492   0.62713   1.63509
H    -6.01463   0.73241   0.78158
H    -6.44334   1.19092  -1.63649
H    -4.51567   1.53924  -3.18392
H    -2.18605   1.40730  -2.32100
H    -1.00213  -0.99949  -1.78486
H    -0.95604  -2.46815  -0.78200
H    -2.44891  -1.51878  -0.88354
H    -1.20342  -0.82069   2.55701
H    -0.97677  -2.35819   1.69072
H    -2.52409  -1.49854   1.56641
