36
Generated by autodE on: 2022-06-25. E = -1049.114367 Ha
C     4.45071   0.80399   2.41197
O     3.62284   0.26136   1.37690
C     2.31529   0.53232   1.45476
O     1.83685   1.20851   2.36856
C     1.48575  -0.00638   0.38719
N     0.17268   0.38950   0.54486
C    -0.96327   0.02125  -0.00331
C    -1.03193  -1.27107  -0.76230
O    -0.58746  -2.30991  -0.32059
O    -1.71847  -1.15551  -1.89055
C    -1.88197  -2.35380  -2.66709
C    -2.18076   0.78445   0.26793
C    -3.44571   0.16115   0.20093
C    -4.60131   0.87822   0.50200
C    -4.52195   2.22605   0.86950
C    -3.27486   2.85659   0.92996
C    -2.11388   2.14771   0.62735
C     1.89911  -0.61043  -0.86196
O     1.16552  -0.70560  -1.84568
O     3.16630  -1.05299  -0.88295
C     3.63016  -1.59398  -2.12458
H     4.14010   0.42802   3.39787
H     5.47010   0.46952   2.18573
H     4.40584   1.90299   2.41245
H     0.10801   1.11463   1.27447
H    -2.46205  -2.06297  -3.54980
H    -0.89828  -2.74336  -2.96481
H    -2.42258  -3.11458  -2.08641
H    -3.52623  -0.89273  -0.06897
H    -5.57168   0.37959   0.45347
H    -5.43104   2.78586   1.10004
H    -3.20588   3.91280   1.19892
H    -1.15480   2.66961   0.64003
H     3.58639  -0.83829  -2.92271
H     3.02811  -2.46621  -2.41900
H     4.66978  -1.89569  -1.94987
