50
Generated by autodE on: 2022-06-20. E = -1038.958945 Ha
C     2.16172  -2.51014   1.04561
C     1.17835  -2.58752   0.13940
C     0.57525  -3.89244  -0.29829
C     0.55804  -1.36391  -0.51690
C     1.36711  -0.09164  -0.35545
C     2.62987   0.13951  -1.08233
C     3.08035  -0.77862  -2.04785
C     4.27576  -0.55473  -2.73366
C     5.03745   0.58556  -2.46326
C     4.59882   1.50448  -1.50173
C     3.40606   1.28362  -0.81674
N     0.88736   0.76839   0.47204
C    -0.36354   0.24911   1.05101
C    -0.04341  -0.26133   2.39867
N     0.21137  -0.66469   3.45683
C    -1.45007   1.31263   1.17139
C    -2.57069   1.07865   1.97941
C    -3.62528   1.99318   2.00459
C    -3.56746   3.15334   1.22488
C    -2.44673   3.39270   0.42485
C    -1.39147   2.47586   0.39736
C    -0.80294  -0.96233   0.11621
C    -1.79696  -0.54520  -0.92471
C    -3.11287  -0.82344  -0.94380
C    -3.99130  -0.30664  -2.05115
C    -3.83373  -1.61185   0.11439
H     2.56193  -3.41246   1.51698
H     2.59908  -1.55721   1.35372
H     1.00125  -4.74453   0.25053
H    -0.51808  -3.89068  -0.15035
H     0.74316  -4.04932  -1.37795
H     0.41345  -1.59195  -1.58376
H     2.49878  -1.67433  -2.26876
H     4.61384  -1.27537  -3.48155
H     5.97364   0.75875  -2.99922
H     5.19249   2.39555  -1.28519
H     3.06238   1.99339  -0.06384
H    -2.62848   0.16923   2.58155
H    -4.49636   1.79734   2.63416
H    -4.39282   3.86889   1.24334
H    -2.39205   4.29741  -0.18533
H    -0.52162   2.65853  -0.23366
H    -1.20968  -1.76623   0.73834
H    -1.38982   0.07062  -1.73513
H    -4.78078   0.34840  -1.64186
H    -3.42144   0.26443  -2.79884
H    -4.51092  -1.13532  -2.56351
H    -3.16890  -2.03025   0.88093
H    -4.57232  -0.96878   0.62360
H    -4.40335  -2.43979  -0.34189
