27
Generated by autodE on: 2022-06-20. E = -687.361296 Ha
N    -1.26783  -2.51079   2.92866
C    -1.16182  -1.75136   2.04325
C    -1.06262  -0.83565   0.97879
N     0.17169  -0.50309   0.57413
C     1.21580  -0.16606   0.17027
C     2.47722   0.23865  -0.31412
C     3.65016  -0.11869   0.38861
C     4.88712   0.28685  -0.10464
C     4.97120   1.04771  -1.27685
C     3.80619   1.40311  -1.96735
C     2.55743   1.00216  -1.50118
C    -2.23058  -0.25080   0.31879
C    -3.53400  -0.60022   0.73398
C    -4.65134  -0.04528   0.11178
C    -4.50378   0.86892  -0.93815
C    -3.21592   1.22021  -1.35691
C    -2.09086   0.67089  -0.74073
H     3.57567  -0.70654   1.30448
H     5.79523   0.00935   0.43471
H     5.94624   1.36420  -1.65298
H     3.87044   1.99623  -2.88197
H     1.64531   1.26949  -2.03678
H    -3.66782  -1.31199   1.55176
H    -5.64969  -0.33169   0.45208
H    -5.38142   1.30184  -1.42309
H    -3.08182   1.93254  -2.17489
H    -1.09658   0.96245  -1.08557
