45
Generated by autodE on: 2022-06-23. E = -1204.210958 Ha
C     4.76160   1.00132   0.11471
N     3.48690   0.65650  -0.47983
C     2.79342  -0.43226  -0.11728
O     3.22002  -1.29152   0.66288
C     1.44705  -0.60864  -0.82045
O     1.04576   0.55169  -1.54136
C     0.19551   1.37749  -0.74075
C    -1.03771   1.84003  -1.52196
C    -1.10843   1.51658  -2.97905
O    -1.88629   2.48877  -0.93540
C    -0.04946   0.59816   0.58579
O     0.92904   1.08726   1.46848
C     1.07310   0.53661   2.78048
C    -1.45821   0.75541   1.16442
O    -1.64574   1.49157   2.11634
C    -2.56399  -0.01760   0.54012
C    -3.95562   0.39496   0.89454
C    -2.32239  -1.02999  -0.34173
C    -3.44172  -1.77518  -1.00046
C    -0.94327  -1.37968  -0.74582
O    -0.71976  -2.12526  -1.68661
C     0.23461  -0.84750   0.11100
O     0.38473  -1.68965   1.21610
C     0.65581  -3.06736   0.96475
H     5.34467   0.08976   0.30258
H     4.63333   1.53154   1.07394
H     5.32182   1.64985  -0.57134
H     3.02241   1.32085  -1.09101
H     1.55160  -1.43354  -1.53831
H     0.72308   2.30403  -0.45899
H    -1.15990   0.42308  -3.10832
H    -1.99214   1.99165  -3.42294
H    -0.19047   1.84799  -3.48920
H     1.30823   1.37576   3.45198
H     1.90186  -0.18582   2.79772
H     0.16131   0.04177   3.13588
H    -4.43818   0.86422   0.01985
H    -3.95482   1.11512   1.72079
H    -4.57084  -0.47504   1.17008
H    -4.07068  -1.08600  -1.58793
H    -4.09806  -2.23634  -0.24522
H    -3.05948  -2.55724  -1.66628
H    -0.20929  -3.57918   0.51346
H     0.86264  -3.51656   1.94514
H     1.53799  -3.19351   0.32093
