19
Generated by autodE on: 2022-06-23. E = -514.665787 Ha
C    -3.91298   0.10709  -0.39500
N    -2.46643   0.08377  -0.41252
C    -1.71187  -0.05256   0.69855
O    -2.16445  -0.17285   1.84802
C    -0.25254  -0.05519   0.51386
O     0.21173   0.07420  -0.68242
C     1.45261   0.11046  -1.16500
C     2.60185  -0.00323  -0.33471
C     3.94720   0.05645  -1.01887
O     2.52207  -0.14697   0.90410
H    -4.33165  -0.73843  -0.96420
H    -4.25551   0.03651   0.64393
H    -4.29741   1.04157  -0.83332
H    -1.98937   0.17269  -1.30459
H     0.42608  -0.16168   1.35751
H     1.47043   0.23608  -2.24510
H     3.87090   0.19186  -2.10627
H     4.53110   0.88697  -0.59021
H     4.49931  -0.87355  -0.80711
