19
Generated by autodE on: 2022-07-27. E = -514.658567 Ha
C     3.27935  -0.84547   1.02391
N     1.96562  -0.56122   0.47699
C     1.25534  -1.52925  -0.14855
O     1.65747  -2.70055  -0.23565
C    -0.03370  -1.19970  -0.77014
O    -0.78863  -0.16713  -0.57513
C    -0.77116   0.89687   0.19963
C    -1.87660   1.80748   0.08684
C    -2.95697   1.50504  -0.92596
O    -1.91717   2.81498   0.80899
H     3.23009  -1.70715   1.70490
H     4.01194  -1.07903   0.23281
H     3.62744   0.03156   1.58293
H     1.71221   0.41191   0.34204
H    -0.45637  -1.91956  -1.47149
H     0.02821   1.05032   0.92360
H    -3.39760   0.51175  -0.74599
H    -3.73744   2.27384  -0.85644
H    -2.54080   1.49536  -1.94618
