37
Generated by autodE on: 2022-06-18. E = -821.871380 Ha
C     3.38176   1.07754   2.34010
O     2.33396   0.97560   1.37105
C     2.39113  -0.09623   0.55325
O     3.28752  -0.93019   0.60033
N     1.35602  -0.12800  -0.32011
C     1.10465  -1.12912  -1.36894
C     1.30274  -2.57180  -0.92996
C    -0.38042  -0.82899  -1.73227
C    -0.61605  -0.65428  -3.22415
N    -0.72696   0.36792  -0.92173
C    -1.76103   0.25491   0.03100
C    -1.66382   0.84249   1.30576
C    -2.72374   0.74325   2.20927
C    -3.89809   0.06393   1.87027
C    -3.99874  -0.51606   0.60141
C    -2.94870  -0.42148  -0.31323
N     0.45848   0.95966  -0.45025
C     0.97683   1.98263  -1.36461
H     4.36472   1.13893   1.85047
H     3.18354   2.00070   2.89786
H     3.36947   0.21602   3.02402
H     1.74836  -0.91605  -2.23936
H     0.72395  -2.78130  -0.01665
H     2.35812  -2.79936  -0.73931
H     0.94176  -3.23710  -1.72910
H    -0.99650  -1.66287  -1.36878
H    -0.02491   0.18054  -3.62878
H    -1.67951  -0.45773  -3.42723
H    -0.33020  -1.57358  -3.75979
H    -0.74805   1.36405   1.57850
H    -2.62320   1.20216   3.19646
H    -4.72335  -0.00985   2.58183
H    -4.91000  -1.04548   0.31145
H    -3.05832  -0.85989  -1.30618
H     1.24109   1.59037  -2.36161
H     0.21048   2.76148  -1.47376
H     1.86869   2.43177  -0.90528
