27
Generated by autodE on: 2022-06-10. E = -5667.441444 Ha
C    -0.65854   4.26889   2.42522
N    -0.16330   3.36685   1.40305
C     1.06305   3.50044   0.87733
O     1.84501   4.39413   1.21649
C     1.49895   2.48143  -0.18868
C     0.49403   1.49042  -0.53613
C    -0.10267   0.43295  -0.54779
C    -0.29941  -0.94543  -0.19969
Br   -2.20416  -1.31632   0.25686
Br    0.18126  -2.09215  -1.77008
C     0.59589  -1.29672   1.00186
C     2.06777  -0.84514   0.89189
C     2.44354   0.58660   1.36984
C     2.73455   1.67113   0.31111
H    -0.64163   5.31174   2.07262
H    -0.04826   4.21028   3.34068
H    -1.69164   3.99464   2.67056
H    -0.74373   2.58982   1.10352
H     1.80050   3.08673  -1.05815
H     0.13551  -0.82335   1.88392
H     0.53949  -2.38436   1.15420
H     2.43260  -1.01164  -0.13514
H     2.63060  -1.55328   1.51864
H     3.36792   0.48758   1.95914
H     1.68394   0.95365   2.08115
H     3.44070   2.40855   0.72144
H     3.21997   1.21529  -0.56561
