58
Generated by autodE on: 2022-06-10. E = -6415.254204 Ha. Imaginary frequency = -248.8 cm-1
C    -1.53300  -5.99515   3.64506
N    -1.12773  -6.65906   2.41660
C    -1.66377  -6.48614   1.19255
O    -1.38524  -7.23126   0.24511
C    -2.56325  -5.26475   0.99743
C    -1.68076  -4.00400   0.74123
C    -2.49539  -2.77616   0.28793
C    -2.33084  -2.35984  -1.18359
C    -2.47894  -3.40038  -2.30540
C    -3.77852  -4.21330  -2.37158
Br   -5.34604  -2.95681  -2.45585
Br   -3.74584  -5.25213  -4.08644
C    -3.93843  -5.11115  -1.24457
C    -3.46809  -5.42517  -0.14419
C    -5.45662  -6.60947   0.92635
C    -4.62001  -7.78834   1.18126
C    -4.45615  -8.78448   0.05447
O    -4.03615  -7.95641   2.25662
C    -5.79062  -5.55088   1.89840
C    -6.29389  -4.31936   1.42657
C    -6.54903  -3.26705   2.30362
C    -6.31602  -3.41771   3.67581
C    -5.83047  -4.63647   4.15639
C    -5.56880  -5.69472   3.28225
N    -6.05958  -6.57590  -0.25885
C    -6.05403  -6.28121  -1.42031
C    -6.74515  -6.46364  -2.66725
C    -6.39342  -7.56351  -3.47321
C    -7.03795  -7.75310  -4.69298
C    -8.01999  -6.85154  -5.12034
C    -8.36402  -5.75830  -4.31807
C    -7.72906  -5.55439  -3.09366
H    -0.88778  -6.35244   4.45732
H    -1.41442  -4.90434   3.57954
H    -2.57818  -6.22100   3.90861
H    -0.54786  -7.48977   2.50387
H    -3.15986  -5.09042   1.90525
H    -1.13548  -3.78162   1.66987
H    -0.92264  -4.26577  -0.01366
H    -2.19454  -1.90652   0.89318
H    -3.56115  -2.93532   0.51653
H    -1.31577  -1.94775  -1.31481
H    -3.02221  -1.52597  -1.38312
H    -2.35011  -2.88057  -3.26598
H    -1.67414  -4.14943  -2.23811
H    -4.02893  -8.29877  -0.83615
H    -5.42641  -9.21459  -0.23834
H    -3.78348  -9.58407   0.38824
H    -6.46746  -4.17605   0.35935
H    -6.92875  -2.32059   1.91137
H    -6.51458  -2.59211   4.36306
H    -5.65125  -4.77078   5.22595
H    -5.18762  -6.63693   3.66687
H    -5.61636  -8.25190  -3.13743
H    -6.76893  -8.60810  -5.31703
H    -8.51776  -7.00159  -6.08093
H    -9.13281  -5.05634  -4.64825
H    -7.99003  -4.70209  -2.46662
