60
Generated by autodE on: 2022-07-01. E = -1530.811342 Ha
C     4.13190  -0.86331   1.83161
O     2.71622  -0.81651   2.04800
C     1.99425  -0.06947   1.17114
C     1.33623   1.06821   1.55126
O     1.35367   1.67671   2.72973
C     2.07474   1.18078   3.86495
C     0.43155   1.78949   0.59827
O     0.04859   2.90592   0.89809
C    -0.00685   1.11297  -0.70096
C    -0.40131   2.20700  -1.70318
C    -1.20432   0.05680  -0.50273
C    -1.10833  -0.68318   0.85846
C    -1.43022  -0.02298   2.05776
C    -1.22814  -0.63274   3.29574
C    -0.72047  -1.93417   3.36874
C    -0.43863  -2.61637   2.18598
C    -0.63481  -1.99839   0.94555
C    -2.62156   0.65880  -0.60147
C    -2.99637   1.85826   0.02737
C    -4.31367   2.32078  -0.02877
C    -5.29247   1.59071  -0.70797
C    -4.93493   0.39404  -1.33309
C    -3.61514  -0.06315  -1.28014
N    -0.97270  -0.83294  -1.64567
C     0.34851  -0.75821  -2.21434
C     0.27320  -0.20228  -3.59182
N     0.17385   0.16789  -4.68732
C     0.94612  -2.20385  -2.42993
C     2.16590  -2.36198  -3.28844
O     0.29232  -3.15368  -2.04729
C     1.14329   0.20884  -1.26132
C     2.28828   0.99659  -1.92541
C     1.82063  -0.62731  -0.17228
O     2.29523  -1.72470  -0.44602
H     4.53981  -1.54029   2.59316
H     4.37243  -1.24983   0.83067
H     4.57127   0.13970   1.95769
H     1.70572   0.18853   4.15416
H     1.87431   1.90293   4.66608
H     3.15343   1.14268   3.66093
H     0.46841   2.82231  -1.96493
H    -1.15355   2.87292  -1.27489
H    -0.82027   1.78030  -2.62122
H    -1.81964   0.99291   2.04368
H    -1.46602  -0.08292   4.20916
H    -0.55563  -2.41051   4.33778
H    -0.05118  -3.63730   2.21760
H    -0.37763  -2.55619   0.04833
H    -2.25906   2.45993   0.55641
H    -4.57106   3.26258   0.46175
H    -6.32248   1.95238  -0.75115
H    -5.68542  -0.19182  -1.86944
H    -3.35862  -0.99669  -1.77933
H    -1.27169  -1.79588  -1.52102
H     2.71735  -3.25357  -2.96302
H     2.81824  -1.48134  -3.27695
H     1.82843  -2.52697  -4.32557
H     2.67495   1.75498  -1.23040
H     3.11596   0.32247  -2.18260
H     1.95756   1.49989  -2.84150
