34
Generated by autodE on: 2022-07-01. E = -841.347270 Ha
C     4.60753  -0.70042  -0.69641
C     3.18898  -1.17452  -0.51122
O     2.89721  -2.38661  -0.53825
C     2.15333  -0.19030  -0.32227
C     2.40221   1.19015  -0.35991
N     2.67534   2.32735  -0.40786
N     0.88240  -0.74089  -0.23452
C    -0.32021  -0.26356  -0.00808
C    -1.47120  -1.15533  -0.20244
C    -2.66992  -0.91657   0.50089
C    -3.76036  -1.77171   0.35039
C    -3.67848  -2.87452  -0.50599
C    -2.49706  -3.11679  -1.21583
C    -1.40349  -2.26523  -1.07185
C    -0.51210   1.12555   0.45139
C    -1.40041   1.97990  -0.22452
C    -1.59070   3.28695   0.22341
C    -0.91732   3.74410   1.36161
C    -0.04859   2.89134   2.04984
C     0.16032   1.58949   1.59541
H     4.89690   0.01101   0.09217
H     5.28596  -1.56322  -0.68448
H     4.70927  -0.17648  -1.66102
H     0.96929  -1.75516  -0.40296
H    -2.73759  -0.06804   1.18247
H    -4.67876  -1.57795   0.90883
H    -4.53564  -3.54091  -0.62556
H    -2.43199  -3.96696  -1.89827
H    -0.50434  -2.45292  -1.66306
H    -1.93054   1.61710  -1.10710
H    -2.27006   3.95107  -0.31541
H    -1.07286   4.76619   1.71447
H     0.47121   3.24228   2.94393
H     0.83988   0.92488   2.13236
