34
Generated by autodE on: 2022-07-27. E = -841.347281 Ha
C     2.73718  -1.56736  -3.50188
C     2.26727  -1.54453  -2.07008
O     2.78804  -2.27093  -1.20059
C     1.20648  -0.63885  -1.70743
C     0.63048   0.26053  -2.61734
N     0.19498   0.99132  -3.42131
N     0.91142  -0.65391  -0.35156
C     0.01040  -0.07165   0.40665
C     0.15446  -0.18123   1.86419
C    -0.97943  -0.06539   2.69425
C    -0.85928  -0.19708   4.07679
C     0.39024  -0.44107   4.65613
C     1.52396  -0.54995   3.84298
C     1.41151  -0.41741   2.46056
C    -1.12773   0.65681  -0.18528
C    -1.41174   1.97321   0.21779
C    -2.49875   2.65357  -0.33055
C    -3.32494   2.01934  -1.26496
C    -3.05893   0.70259  -1.65363
C    -1.96209   0.02392  -1.12320
H     3.26083  -0.62748  -3.74271
H     1.89092  -1.65633  -4.20010
H     3.42790  -2.40808  -3.64660
H     1.59482  -1.27368   0.11111
H    -1.95978   0.10929   2.24977
H    -1.74815  -0.11345   4.70583
H     0.48250  -0.53950   5.74006
H     2.50508  -0.72406   4.29002
H     2.31342  -0.46686   1.84664
H    -0.76984   2.46169   0.95327
H    -2.70461   3.68178  -0.02513
H    -4.18000   2.55150  -1.68807
H    -3.70765   0.20185  -2.37555
H    -1.75533  -1.00378  -1.42804
