26
Generated by autodE on: 2022-07-01. E = -689.456661 Ha
C    -2.32627  -2.43127   0.80138
O    -2.09150  -1.27162  -0.00942
C    -0.88978  -0.65657   0.01929
C    -0.84686   0.70760  -0.01053
O    -2.00530   1.39317   0.05011
C    -2.17274   2.62454  -0.66587
C     0.45856   1.41283   0.06334
O     0.49169   2.62890   0.22554
C     1.71832   0.61755  -0.02175
C     3.01203   1.37096  -0.02441
C     1.67313  -0.73713  -0.04357
C     2.91418  -1.57317  -0.08158
C     0.36044  -1.44697  -0.08597
O     0.30653  -2.66446  -0.23711
H    -3.39955  -2.42476   1.03773
H    -2.07413  -3.35276   0.26017
H    -1.75093  -2.38425   1.73811
H    -3.24553   2.69632  -0.89309
H    -1.86694   3.48380  -0.05476
H    -1.60348   2.61924  -1.60696
H     3.61255   1.10952  -0.91098
H     2.84116   2.45383  -0.01732
H     3.61993   1.10496   0.85656
H     2.67392  -2.64271  -0.07859
H     3.56059  -1.34959   0.78274
H     3.50727  -1.34844  -0.98391
