60
Generated by autodE on: 2022-07-01. E = -1530.786496 Ha. Imaginary frequency = -292.4 cm-1
C     3.33938  -1.99127   1.47271
O     3.41650  -0.56478   1.52376
C     2.41334   0.12057   0.88364
C     1.46794   0.85571   1.55407
O     1.30211   0.95002   2.86525
C     2.14324   0.30710   3.82965
C     0.49398   1.75413   0.82108
O    -0.21085   2.51613   1.52828
C     0.48727   1.72936  -0.59969
C    -0.26631   2.80999  -1.32096
C    -1.15464  -0.42459   0.04479
C    -1.19434  -0.75538   1.47788
C    -2.08314  -0.08942   2.34810
C    -2.07125  -0.34799   3.71808
C    -1.19969  -1.29975   4.25074
C    -0.33696  -1.99666   3.39709
C    -0.32288  -1.72025   2.03502
C    -2.32693   0.21229  -0.60615
C    -2.82006   1.47958  -0.25343
C    -3.97621   1.97574  -0.85425
C    -4.66608   1.21103  -1.80081
C    -4.19260  -0.05823  -2.14397
C    -3.03243  -0.55608  -1.55168
N    -0.25589  -1.07044  -0.71376
C     0.37886  -0.61103  -1.88861
C    -0.45981  -0.10686  -2.95873
N    -1.03027   0.29402  -3.88648
C     1.30823  -1.74352  -2.38842
C     1.73648  -1.76087  -3.81860
O     1.62191  -2.60710  -1.59084
C     1.38456   0.86397  -1.36014
C     1.96492   1.49460  -2.62341
C     2.49555   0.17332  -0.56668
O     3.43343  -0.35847  -1.16272
H     4.33008  -2.37379   1.75412
H     2.59217  -2.36633   2.19155
H     3.08494  -2.34896   0.46512
H     2.13572  -0.78198   3.70522
H     1.70902   0.56643   4.80326
H     3.17001   0.68922   3.76232
H     0.43015   3.49155  -1.83942
H    -0.84786   3.40968  -0.61391
H    -0.95310   2.41760  -2.08577
H    -2.79528   0.63325   1.95874
H    -2.75834   0.19442   4.37075
H    -1.19700  -1.50642   5.32310
H     0.34027  -2.75377   3.79683
H     0.38045  -2.27923   1.41904
H    -2.27775   2.08301   0.47177
H    -4.33833   2.96964  -0.58232
H    -5.57297   1.60293  -2.26691
H    -4.72809  -0.66700  -2.87579
H    -2.67268  -1.55181  -1.81514
H     0.34614  -1.76304  -0.26211
H     1.91390  -0.75779  -4.22438
H     0.91480  -2.20782  -4.40531
H     2.62913  -2.38999  -3.92246
H     2.50143   2.41253  -2.33953
H     2.68582   0.82388  -3.10151
H     1.19014   1.76868  -3.34817
