32
Generated by autodE on: 2022-06-29. E = -656.749324 Ha
C    -2.42596   2.60178  -0.67669
C    -1.15689   1.96404  -0.15899
O    -0.13015   2.63769  -0.05756
C    -1.23762   0.53938   0.20074
C    -0.23192  -0.39104   0.30084
C     1.23030  -0.27989   0.23455
C     1.96983  -1.29772  -0.40732
C     3.36202  -1.24232  -0.46931
C     4.05168  -0.18640   0.13604
C     3.33485   0.81240   0.80250
C     1.94068   0.77119   0.84845
C    -0.91401  -1.75285   0.36685
C    -1.51104  -2.02011  -1.05508
C    -2.65586  -0.97548  -1.15346
C    -2.55732  -0.23428   0.21675
C    -2.18897  -1.39844   1.15258
H    -2.86703   2.01226  -1.49509
H    -3.17729   2.64236   0.12913
H    -2.20966   3.62147  -1.02123
H     1.44748  -2.13156  -0.87864
H     3.91197  -2.03141  -0.98756
H     5.14284  -0.14715   0.09568
H     3.86582   1.63129   1.29391
H     1.39083   1.54994   1.37132
H    -0.28567  -2.56420   0.75277
H    -1.89653  -3.04927  -1.10227
H    -0.75374  -1.90752  -1.84307
H    -2.53584  -0.28401  -1.99921
H    -3.63786  -1.46186  -1.25263
H    -3.44457   0.35360   0.47738
H    -1.98412  -1.07540   2.18399
H    -2.93289  -2.20983   1.15607
