28
Generated by autodE on: 2022-06-29. E = -724.754280 Ha
C     0.18542  -4.11168   0.17623
N    -0.26968  -2.73581   0.13433
C     0.60322  -1.70995   0.14292
O     1.82862  -1.88404   0.19845
C     0.02836  -0.32554   0.12604
N     0.87766   0.58286   0.48077
C     1.73290   1.32006   0.89341
C     2.84076   2.10700   0.38208
C     4.14344   1.35269   0.32895
O     2.71108   3.29295   0.10223
C    -1.35940   0.05993  -0.19742
C    -2.10948  -0.62658  -1.17233
C    -3.41459  -0.22887  -1.46964
C    -3.99009   0.86146  -0.81124
C    -3.24723   1.55897   0.14817
C    -1.94585   1.16372   0.45337
H     0.67278  -4.34930   1.13629
H     0.91071  -4.30696  -0.62806
H    -0.67854  -4.77436   0.04488
H    -1.26534  -2.54666   0.16932
H     4.77194   1.78378  -0.46348
H     3.97713   0.27902   0.15700
H     4.66445   1.47172   1.29400
H    -1.66625  -1.46000  -1.71810
H    -3.98020  -0.77084  -2.23104
H    -5.01107   1.16989  -1.04698
H    -3.68725   2.41386   0.66687
H    -1.37502   1.70841   1.20857
