60
Generated by autodE on: 2022-06-29. E = -1381.503270 Ha. Imaginary frequency = -349.8 cm-1
C     1.20018   2.38305   3.85177
N     1.49567   1.29810   2.93768
C     1.54174   1.49976   1.60131
O     1.52665   2.64092   1.11721
C     1.60540   0.27398   0.74931
C     2.40767   0.20275  -0.47468
C     2.64630  -1.05294  -1.07664
C     3.35845  -1.15151  -2.26931
C     3.84480  -0.00076  -2.89933
C     3.61498   1.24806  -2.31446
C     2.90973   1.35483  -1.11641
N     1.28552  -0.88477   1.35684
C     0.33175  -1.62691   1.50471
C     0.09076  -2.82237   2.34198
C     0.57517  -4.12728   1.79279
O    -0.52397  -2.68311   3.38838
C    -1.30258  -0.83993   0.35635
C    -1.38831  -2.10069  -0.43738
C    -2.54977  -3.02115  -0.14965
O    -0.51618  -2.46840  -1.22358
C    -2.36068  -0.57832   1.44606
C    -3.57123   0.12899   0.76265
C    -3.00928   1.54199   0.43970
C    -1.53114   1.43561   0.92488
C    -1.72518   0.59468   2.19460
C    -0.84765   0.46483  -0.05298
C    -0.43599   0.97799  -1.36966
C    -0.42377   2.37837  -1.58729
C    -0.04398   2.92851  -2.81149
C     0.33917   2.10401  -3.87277
C     0.34141   0.71985  -3.67969
C    -0.03025   0.16754  -2.45453
H     0.15960   2.73396   3.74399
H     1.86902   3.23625   3.66866
H     1.34828   2.03116   4.88015
H     1.46644   0.34847   3.29223
H     2.26701  -1.96027  -0.60561
H     3.52992  -2.13479  -2.71348
H     4.39736  -0.07769  -3.83847
H     3.98495   2.15488  -2.79858
H     2.72752   2.33106  -0.67575
H     1.67358  -4.09317   1.70135
H     0.17564  -4.28134   0.77774
H     0.27086  -4.94793   2.45571
H    -3.51523  -2.50238  -0.22946
H    -2.47288  -3.39857   0.88314
H    -2.51629  -3.86935  -0.84513
H    -2.62470  -1.45600   2.04473
H    -3.91263  -0.40363  -0.13543
H    -4.41851   0.17786   1.46274
H    -3.07782   1.80019  -0.62563
H    -3.53153   2.32421   1.01097
H    -1.02626   2.39668   1.05416
H    -0.80134   0.33202   2.71917
H    -2.41387   1.07049   2.90803
H    -0.71529   3.05682  -0.78842
H    -0.04957   4.01455  -2.93382
H     0.63843   2.53416  -4.83142
H     0.65226   0.05513  -4.48957
H     0.00508  -0.90778  -2.32649
