22
Generated by autodE on: 2022-06-06. E = -1058.439573 Ha
C     2.77245   1.56298  -0.02778
C     1.95568   0.65562  -0.89146
O     2.09653   0.51118  -2.08784
C     0.95417  -0.23095  -0.15682
C     1.62379  -1.52000   0.31088
C     1.66837  -2.62488  -0.69489
O     2.15152  -1.54183   1.40312
C    -0.33117   0.07886   0.05079
C    -1.28674  -0.81853   0.81238
F    -2.47542  -0.89834   0.19221
F    -0.81920  -2.06842   0.94617
F    -1.51574  -0.34713   2.04828
C    -0.96705   1.36136  -0.44827
F    -1.75521   1.13313  -1.51030
F    -0.05666   2.27340  -0.81986
F    -1.73390   1.92246   0.50132
H     2.11407   2.24661   0.52900
H     3.30418   0.95193   0.72097
H     3.48906   2.12453  -0.64147
H     0.64656  -2.90271  -0.99406
H     2.17658  -2.25461  -1.60110
H     2.20367  -3.49050  -0.28311
