23
Generated by autodE on: 2022-07-27. E = -687.238203 Ha
C    -0.18508   1.54883  -2.49348
O    -0.29346   0.61499  -1.41239
C     0.84363   0.22755  -0.80339
O     1.94764   0.57713  -1.18159
C     0.58417  -0.71518   0.28077
O    -0.67011  -0.96761   0.72183
C    -1.76212  -0.30664   0.72914
C    -1.94867   1.14982   0.47844
C    -0.91066   2.11486   0.98139
O    -3.02507   1.50789   0.02560
C     1.56403  -1.66862   0.77861
C     1.06134  -2.74009   1.72087
O     2.75500  -1.60218   0.46577
H    -1.21294   1.83577  -2.74397
H     0.39248   2.43113  -2.18420
H     0.30090   1.07616  -3.35914
H    -2.62548  -0.89066   1.06413
H    -0.60030   2.78871   0.16951
H    -0.02451   1.62323   1.40614
H    -1.39101   2.72622   1.76192
H     0.24552  -3.32007   1.26216
H     1.89743  -3.40597   1.96943
H     0.66156  -2.29071   2.64365
