23
Generated by autodE on: 2022-06-06. E = -687.250873 Ha
C    -2.31036   2.19296   1.60885
O    -1.31817   1.33274   1.03172
C    -1.68220   0.63623  -0.05934
O    -2.79524   0.71182  -0.55042
C    -0.59713  -0.20259  -0.57129
O     0.60805  -0.25039  -0.00535
C     1.20776   0.28154   0.99477
C     2.60564  -0.10488   1.22419
C     3.25078  -1.08590   0.28841
O     3.18265   0.40106   2.18306
C    -0.70928  -1.07149  -1.74419
C     0.51879  -1.86217  -2.13516
O    -1.75390  -1.15928  -2.38770
H    -2.62755   2.95478   0.88231
H    -1.82994   2.66717   2.47221
H    -3.18440   1.60905   1.93125
H     0.69881   0.99042   1.64722
H     4.28578  -1.26265   0.60652
H     3.23533  -0.69711  -0.74200
H     2.69116  -2.03444   0.28337
H     1.36478  -1.19250  -2.35291
H     0.83415  -2.52799  -1.31730
H     0.27836  -2.45703  -3.02519
