45
Generated by autodE on: 2022-06-06. E = -1745.655728 Ha. Imaginary frequency = -274.8 cm-1
C     1.25669   3.18042  -0.99134
O     0.87264   2.04294  -0.20028
C     1.82562   1.38243   0.42981
O     3.00054   1.67372   0.41196
C     1.28895   0.19425   1.18584
C     2.27989  -0.82582   1.67106
C     2.03577  -1.44688   3.01645
O     3.25813  -1.07904   0.99038
O     0.18702   0.22421   1.90577
C    -0.98047   0.82350   1.77934
C    -1.20631   2.30883   1.81020
C    -0.08863   3.24274   2.19346
O    -2.35580   2.70725   1.72371
C    -1.38175  -0.16585  -0.36643
C    -2.55568  -0.84277   0.35278
C    -3.82512  -0.04422   0.50470
O    -2.48501  -1.98163   0.76821
C    -1.87755   0.95057  -1.30770
C    -2.53866   0.45185  -2.57414
O    -1.82211   2.12874  -1.04064
C    -0.16826  -0.81443  -0.64668
C     0.10543  -2.26920  -0.24812
F     0.01997  -2.50371   1.06520
F    -0.71655  -3.12077  -0.88229
F     1.35659  -2.63093  -0.60653
C     0.63888  -0.46030  -1.89931
F     0.47045  -1.41751  -2.83671
F     1.96060  -0.36750  -1.67959
F     0.26992   0.69589  -2.46793
H     0.32333   3.58784  -1.39154
H     1.76930   3.92182  -0.36407
H     1.91991   2.85701  -1.80477
H     2.70747  -2.30544   3.14145
H     0.99053  -1.74671   3.15751
H     2.26504  -0.69009   3.78679
H    -1.72354   0.29761   2.38656
H     0.08139   3.96056   1.37849
H    -0.44070   3.81318   3.06641
H     0.85409   2.74651   2.45116
H    -3.63491   1.01013   0.73943
H    -4.39431  -0.09326  -0.43724
H    -4.43153  -0.50830   1.29296
H    -2.32361   1.15823  -3.38746
H    -3.62881   0.44746  -2.41417
H    -2.22887  -0.56476  -2.84869
