34
Generated by autodE on: 2022-05-29. E = -1113.465435 Ha
C    -4.46203   0.91132   1.38910
N    -3.04437   0.71536   1.14702
C    -2.55119   0.63157  -0.09575
O    -3.23065   0.75982  -1.11723
C    -1.06821   0.34837  -0.20939
N    -0.25485   0.40072   1.01880
C     0.99549   0.20521   0.35951
C     2.23527   0.39425   1.21748
O     2.18730   0.74969   2.37128
O     3.32935   0.11926   0.53093
C     4.58557   0.25891   1.22409
O     1.01750   1.15938  -0.75644
C    -0.29160   1.30984  -1.12421
O    -0.64490   2.04775  -1.99969
C     0.77287  -1.18016  -0.29574
F     1.02659  -2.15330   0.61889
F     1.62606  -1.38973  -1.32430
C    -0.72816  -1.11665  -0.73513
C    -0.90328  -1.27563  -2.24428
C    -1.57162  -2.15205   0.01161
H    -5.04677   0.02305   1.09883
H    -4.61628   1.10514   2.45727
H    -4.83393   1.76947   0.81118
H    -2.43626   0.50148   1.93118
H    -0.28639   1.31657   1.47624
H     5.35849  -0.01753   0.49921
H     4.71841   1.29868   1.55357
H     4.61092  -0.41386   2.09242
H    -1.94507  -1.05535  -2.51293
H    -0.24908  -0.61049  -2.82369
H    -0.67684  -2.31097  -2.53653
H    -1.20455  -3.16301  -0.21501
H    -2.61584  -2.08645  -0.32540
H    -1.53753  -2.00577   1.09834
