12
Generated by autodE on: 2022-05-29. E = -355.865128 Ha
C    -0.65871  -1.88160  -0.27924
C     0.17985  -0.64046  -0.39373
C     1.37972  -0.68309  -1.29670
C    -0.12989   0.46202   0.28405
F     0.54977   1.60519   0.24716
F    -1.16834   0.59544   1.10505
H    -1.04534  -2.17555  -1.27012
H    -0.04727  -2.72465   0.08573
H    -1.51167  -1.75379   0.40066
H     1.92905   0.26777  -1.31436
H     1.07432  -0.92686  -2.32871
H     2.07331  -1.47867  -0.97461
