22
Generated by autodE on: 2022-05-29. E = -757.568567 Ha
C    -4.74558  -0.29530  -0.53379
N    -3.39994   0.15524  -0.24379
C    -2.33020  -0.63991  -0.44644
O    -2.40800  -1.79545  -0.89336
C    -1.03653  -0.05164  -0.10472
N     0.13536  -0.74248  -0.26211
C     1.15947  -0.00105   0.10533
C     2.56295  -0.43288   0.06440
O     2.88327  -1.54024  -0.32053
O     3.38331   0.51864   0.48755
C     4.78728   0.20261   0.48510
O     0.73478   1.19123   0.51618
C    -0.69876   1.22768   0.40549
O    -1.32244   2.22277   0.72503
H    -5.44633   0.51859  -0.31239
H    -4.85436  -0.57663  -1.59340
H    -5.01761  -1.17139   0.07694
H    -3.24789   1.08876   0.12930
H     0.20345  -1.69977  -0.61700
H     5.29522   1.09818   0.85882
H     5.12058  -0.03133  -0.53586
H     4.98345  -0.65474   1.14436
