54
Generated by autodE on: 2022-06-03. E = -1319.842494 Ha
C    -2.39631  -1.49436  -2.56505
C    -1.50779  -0.35605  -2.14163
O    -1.04536   0.40445  -2.97335
C    -1.03590  -0.23616  -0.65185
C    -1.96026  -0.98004   0.30865
C    -3.34291  -0.73713   0.27724
C    -4.19594  -1.33946   1.20371
C    -3.68095  -2.19936   2.17911
C    -2.30628  -2.44369   2.22026
C    -1.45298  -1.83496   1.29505
N     0.32434  -0.79744  -0.64090
C     0.54536  -2.10299  -1.24956
C     1.34849   0.19918  -0.88629
C     1.68054   0.30073  -2.34109
N     1.99094   0.28523  -3.45867
C     2.67065  -0.13259  -0.16760
C     3.86286   0.48722  -0.56530
C     5.04796   0.25351   0.13572
C     5.05444  -0.61008   1.23519
C     3.86729  -1.23249   1.63093
C     2.67901  -0.99256   0.93630
C     0.70343   1.55102  -0.35959
C     1.01501   2.67584  -1.22377
N     1.26572   3.59114  -1.89206
C     1.12112   1.85429   1.14698
C     0.49629   3.17932   1.54247
C    -0.80413   2.91170   1.70504
C    -0.95397   1.43286   1.38144
O     0.30368   0.90714   1.82340
C    -0.85124   1.26954  -0.19435
C    -1.79742   2.24898  -0.88922
H    -2.17935  -1.73407  -3.61492
H    -2.28900  -2.38199  -1.92987
H    -3.44696  -1.16842  -2.49643
H    -3.76499  -0.06178  -0.46876
H    -5.26819  -1.13416   1.16298
H    -4.34774  -2.67314   2.90328
H    -1.88963  -3.10911   2.98009
H    -0.38063  -2.01462   1.34941
H    -0.20282  -2.81529  -0.88055
H     0.49865  -2.08748  -2.35505
H     1.53692  -2.47770  -0.96286
H     3.86929   1.16635  -1.42024
H     5.96920   0.74717  -0.18168
H     5.98210  -0.79791   1.78069
H     3.86178  -1.90879   2.48878
H     1.75126  -1.46184   1.25818
H     2.18353   1.71413   1.35441
H     1.02318   4.13087   1.59875
H    -1.62160   3.59345   1.93585
H    -1.79374   0.90933   1.84166
H    -1.64853   2.27244  -1.97124
H    -2.84037   1.96435  -0.68648
H    -1.64811   3.26554  -0.50682
