54
Generated by autodE on: 2022-06-03. E = -1319.763729 Ha. Imaginary frequency = -223.4 cm-1
C    -0.89700  -1.15066  -3.18336
C    -1.46929  -0.14810  -2.20226
O    -2.32650   0.63685  -2.56949
C    -1.12579  -0.37527  -0.74009
C    -2.23751  -0.99436   0.02786
C    -3.51449  -1.17760  -0.55430
C    -4.57141  -1.73215   0.16726
C    -4.39808  -2.12886   1.49522
C    -3.14771  -1.95143   2.09339
C    -2.09070  -1.39170   1.37847
N     0.19172  -0.76313  -0.50340
C     0.50104  -2.03462   0.17903
C     1.23085  -0.00127  -0.96785
C     1.03238   0.78253  -2.14626
N     0.95770   1.43318  -3.11065
C     2.64522  -0.23989  -0.61028
C     3.65356  -0.06259  -1.58045
C     4.99940  -0.21789  -1.25044
C     5.37197  -0.54783   0.05558
C     4.38305  -0.71794   1.03005
C     3.03637  -0.56530   0.70622
C     0.47078   2.06050   0.23297
C     1.12627   3.05356  -0.52282
N     1.69474   3.88414  -1.11471
C     0.90967   1.80738   1.70039
C     0.34301   2.98893   2.50863
C    -0.98093   2.79784   2.50948
C    -1.19819   1.49876   1.71073
O    -0.00676   0.76653   2.05021
C    -0.91995   1.84373   0.23006
C    -1.90790   2.65595  -0.53719
H     0.05901  -1.59641  -2.88740
H    -1.64261  -1.96436  -3.23261
H    -0.81697  -0.69244  -4.17811
H    -3.69904  -0.88648  -1.58588
H    -5.53982  -1.85891  -0.32231
H    -5.22629  -2.56574   2.05750
H    -2.99004  -2.24072   3.13502
H    -1.14774  -1.23576   1.89233
H    -0.32854  -2.72555   0.00189
H     1.40783  -2.45162  -0.27201
H     0.65549  -1.92401   1.25620
H     3.38150   0.19181  -2.60564
H     5.76053  -0.08221  -2.02194
H     6.42626  -0.66799   0.31443
H     4.66091  -0.96490   2.05707
H     2.29074  -0.68233   1.48872
H     1.95336   1.52786   1.86745
H     0.93062   3.81298   2.91174
H    -1.77564   3.42113   2.91770
H    -2.10981   0.93681   1.92663
H    -1.57130   2.85838  -1.56143
H    -2.89315   2.17486  -0.57683
H    -2.02408   3.62710  -0.01887
