52
Generated by autodE on: 2022-06-02. E = -1222.805529 Ha
C     1.63269   3.34248  -2.14472
N     0.63225   2.34739  -1.81400
C     0.80392   1.04598  -2.08527
O     1.71745   0.60615  -2.79357
C    -0.16739   0.06275  -1.43749
N    -1.41019   0.64376  -0.96178
C    -2.31211   1.15256  -1.98954
C    -2.01990  -0.23852   0.01438
C    -2.94451  -1.21039  -0.61744
N    -3.69863  -1.89636  -1.17130
C    -2.84997   0.59201   1.06660
C    -3.88417  -0.14302   1.86091
O    -2.61751   1.77160   1.19278
C    -0.80361  -0.99165   0.71486
C    -0.71667  -0.59896   2.12008
N    -0.68573  -0.34336   3.25147
C    -0.83682  -2.56119   0.62569
C     0.29134  -3.13875   1.50165
C     1.57974  -2.71987   0.73769
C     1.03069  -2.02054  -0.52877
C    -0.25827  -2.82347  -0.77338
C     0.47775  -0.61293  -0.17232
C     1.47165   0.34811   0.47018
C     1.04049   1.50304   1.14566
C     1.95680   2.43633   1.63475
C     3.32846   2.24128   1.45170
C     3.77063   1.11068   0.76096
C     2.85106   0.17899   0.27144
H     2.49596   3.28535  -1.45988
H     1.99438   3.18740  -3.17022
H     1.18827   4.34322  -2.07121
H    -0.07419   2.57805  -1.12114
H    -0.34056  -0.70090  -2.21519
H    -3.20255   1.59233  -1.51953
H    -2.63611   0.36342  -2.69462
H    -1.81053   1.93960  -2.56526
H    -4.11498   0.41709   2.77566
H    -3.56854  -1.16926   2.09934
H    -4.79709  -0.21675   1.24548
H    -1.83075  -2.96478   0.85086
H     0.18026  -4.23169   1.53148
H     0.26575  -2.77991   2.53845
H     2.22296  -2.06733   1.33965
H     2.17699  -3.59608   0.44840
H     1.73129  -1.97647  -1.37140
H    -0.87255  -2.46695  -1.60723
H    -0.06299  -3.89362  -0.93070
H    -0.02272   1.70818   1.26621
H     1.59189   3.32515   2.15463
H     4.04616   2.97018   1.83529
H     4.83846   0.95048   0.59457
H     3.22187  -0.68110  -0.28489
