24
Generated by autodE on: 2022-06-02. E = -626.448441 Ha
C     4.51777   0.63417   0.00476
N     3.08039   0.80735  -0.00210
C     2.24508  -0.25404   0.01362
O     2.67346  -1.41703   0.03744
C     0.82482   0.17598  -0.00355
N    -0.24569  -0.58448   0.00926
C    -0.14552  -2.06305   0.04886
C    -1.54929  -0.07267  -0.00925
C    -2.60655  -1.00943  -0.00872
N    -3.51375  -1.74666  -0.00982
C    -1.87780   1.33687  -0.02437
C    -3.35044   1.68860  -0.03240
O    -1.02781   2.24316  -0.02906
H     4.84652   0.08448   0.90112
H     4.85381   0.06775  -0.87862
H     4.99393   1.62158  -0.00274
H     2.69560   1.74636  -0.02427
H     0.61988   1.24450  -0.03025
H    -0.66377  -2.42187   0.94655
H    -0.63562  -2.46951  -0.84431
H     0.90674  -2.34580   0.07168
H    -3.44971   2.78154  -0.04055
H    -3.85295   1.26983  -0.91834
H    -3.85988   1.28230   0.85540
