28
Generated by autodE on: 2022-06-02. E = -596.319128 Ha
N     0.06139  -0.53242   3.38374
C    -0.37818  -0.19397   2.35645
C    -0.96814   0.22314   1.14196
C    -0.38858   0.34244  -0.09211
C     1.00211   0.13987  -0.49555
C     2.06879   0.25481   0.42145
C     3.38470   0.04691   0.01216
C     3.66758  -0.28298  -1.31851
C     2.62205  -0.39397  -2.23997
C     1.30402  -0.17725  -1.83654
C    -1.53650   0.58559  -1.06160
C    -2.30427  -0.77458  -1.16259
C    -2.95918  -0.91236   0.24082
C    -2.47909   0.37983   0.97154
C    -2.50464   1.39996  -0.18112
H     1.87030   0.52987   1.45772
H     4.19717   0.14869   0.73536
H     4.70002  -0.44629  -1.63611
H     2.83344  -0.64842  -3.28111
H     0.49836  -0.27031  -2.56597
H    -1.24926   1.01834  -2.02621
H    -1.62778  -1.60490  -1.40825
H    -3.06220  -0.70921  -1.95675
H    -4.05727  -0.91947   0.17441
H    -2.64626  -1.81940   0.77668
H    -3.02722   0.62322   1.88939
H    -3.50079   1.51641  -0.63376
H    -2.10514   2.38407   0.10399
