45
Generated by autodE on: 2022-06-25. E = -1411.504430 Ha
C    -3.14189   3.67889   0.33591
O    -2.46679   2.46426   0.70672
C    -2.28104   1.57040  -0.25277
O    -2.70446   1.64297  -1.38177
C    -1.52044   0.37121   0.27583
O    -1.44226  -0.66853  -0.69809
C    -0.86922  -1.63463   0.14640
C    -0.82785  -3.04645  -0.45264
C    -1.11187  -3.17328  -1.91325
O    -0.65651  -3.97645   0.30779
O    -1.77025  -1.66101   1.28635
C    -2.21719  -0.38952   1.42262
O    -2.96774  -0.02053   2.27865
C     0.46082  -0.96394   0.61954
C     1.01469  -1.57306   1.91474
C     1.54154  -1.20102  -0.43204
O     1.64465  -2.29089  -0.97814
C     2.51996  -0.12536  -0.66942
O     3.73711  -0.37073  -1.16744
C     4.39675  -1.61996  -0.90875
C     2.10412   1.18168  -0.58495
O     2.93932   2.14003  -1.00175
C     2.77109   3.49730  -0.56263
C     0.68991   1.46458  -0.27569
O     0.13295   2.46135  -0.70999
C    -0.01663   0.53968   0.71733
C     0.16490   1.20413   2.08973
H    -2.55337   4.21396  -0.42293
H    -4.14269   3.45437  -0.05790
H    -3.21459   4.27318   1.25315
H    -2.18763  -2.97857  -2.06691
H    -0.87209  -4.18935  -2.25094
H    -0.55956  -2.42320  -2.49530
H     1.22907  -2.63806   1.75547
H     0.29465  -1.48075   2.73612
H     1.94611  -1.06657   2.20206
H     5.46637  -1.42365  -1.05706
H     4.05844  -2.39537  -1.60755
H     4.22447  -1.94778   0.12696
H     3.75373   3.97034  -0.68585
H     2.47728   3.53344   0.49681
H     2.02564   4.01958  -1.17553
H    -0.33689   0.64063   2.88621
H    -0.25257   2.21878   2.06443
H     1.23384   1.26981   2.33373
