19
Generated by autodE on: 2022-06-25. E = -721.999871 Ha
C    -3.94083   0.81133  -0.44586
O    -2.51394   0.71550  -0.32886
C    -2.02292  -0.49109  -0.01831
O    -2.70385  -1.48703   0.16711
C    -0.58054  -0.49615   0.07630
O     0.15703   0.65827  -0.13754
C     1.40880   0.37716   0.00552
C     2.46146   1.44074  -0.16550
C     3.87073   1.00297   0.04076
O     2.08600   2.55763  -0.45258
O     1.63181  -0.85365   0.29647
C     0.28173  -1.56184   0.37000
O     0.24816  -2.73048   0.63046
H    -4.42495   0.55218   0.50690
H    -4.15095   1.85526  -0.70525
H    -4.30936   0.14204  -1.23671
H     3.98755   0.60470   1.06241
H     4.11044   0.18076  -0.65351
H     4.54793   1.85036  -0.11918
