26
Generated by autodE on: 2022-06-25. E = -689.460838 Ha
C     2.79534   1.58012   0.51461
O     2.18689   0.32751   0.84713
C     0.90890   0.14583   0.40152
C     0.58680  -0.71712  -0.60325
O     1.38572  -1.48007  -1.34894
C     2.81283  -1.43840  -1.24617
C    -0.85660  -0.91846  -0.98208
O    -1.12620  -1.70645  -1.87817
C    -1.91347  -0.15092  -0.27492
C    -3.33262  -0.36753  -0.70119
C    -1.58096   0.70962   0.71903
C    -2.61115   1.50222   1.45955
C    -0.15293   0.87795   1.12497
O     0.15048   1.61198   2.06393
H     3.81381   1.55153   0.92407
H     2.24667   2.42343   0.95909
H     2.84545   1.70927  -0.57939
H     3.17698  -2.14864  -1.99929
H     3.14737  -1.74917  -0.24814
H     3.19408  -0.43316  -1.47589
H    -3.94474  -0.71970   0.14537
H    -3.39586  -1.10301  -1.51172
H    -3.78468   0.57760  -1.04472
H    -2.14852   2.14237   2.21970
H    -3.18984   2.13332   0.76500
H    -3.33627   0.83339   1.95255
