24
Generated by autodE on: 2022-12-30. E = -630.222026 Ha
C     3.84051   0.16304  -0.09385
N     2.41101   0.25443   0.10631
C     1.54674  -0.75665  -0.16766
O     1.91887  -1.86422  -0.60017
C     0.13399  -0.48164   0.08003
C    -0.52645   0.65585   0.41075
O    -0.00615   1.85618   0.64538
C    -0.87765   2.92836   1.03430
C    -2.03605   0.29732   0.34508
C    -2.36845   0.09753  -1.15109
C    -1.73076  -1.02721  -1.48960
C    -1.00272  -1.48259  -0.20457
O    -1.96794  -1.06390   0.79087
H     4.09133  -0.86084  -0.39491
H     4.38700   0.40157   0.83254
H     4.18506   0.85347  -0.88167
H     2.02097   1.13525   0.42711
H    -0.24134   3.81577   1.13002
H    -1.35412   2.70716   2.00080
H    -1.64336   3.10425   0.26466
H    -2.72329   0.90187   0.94457
H    -2.95255   0.78562  -1.76036
H    -1.65478  -1.51694  -2.45979
H    -0.74573  -2.54270  -0.11623
