22
Generated by autodE on: 2023-01-01. E = -662.330688 Ha
C     1.08529  -3.73535  -0.78067
O     0.74601  -2.49396  -0.14196
C     0.07252  -1.60523  -0.87406
O    -0.27109  -1.78912  -2.02314
C    -0.15787  -0.37305  -0.07643
C     0.34011  -0.34681   1.25183
N     0.70413  -0.35522   2.35738
N    -0.87500   0.67034  -0.53015
C    -1.67298   0.55792  -1.77349
N    -1.00260   1.82387   0.06286
C     0.06400   2.39085   0.75556
C    -0.35426   3.50142   1.67135
O     1.23566   2.06907   0.58202
H     0.17296  -4.27082  -1.07967
H     1.71173  -3.54929  -1.66460
H     1.63991  -4.31286  -0.03293
H    -2.32396   1.43526  -1.79088
H    -2.24782  -0.37245  -1.77231
H    -0.98713   0.56892  -2.62933
H    -0.68731   3.04650   2.62064
H     0.49965   4.15913   1.87906
H    -1.19773   4.07087   1.25888
