51
Generated by autodE on: 2022-06-12. E = -1171.503098 Ha
C    -1.62205   3.56590  -0.89982
O    -1.16908   2.39398  -0.20866
C    -1.30052   1.22608  -0.84340
O    -1.80671   1.13426  -1.94383
C    -0.65056   0.09356  -0.06704
C    -0.79546   0.27941   1.47045
C    -2.31677   0.34685   1.78230
C    -2.77565  -1.13679   1.65570
C    -1.49039  -1.84419   1.17082
C    -0.46112  -1.10615   2.04540
C    -1.18912  -1.38354  -0.29612
C    -2.39989  -1.59668  -1.20751
C     0.07943  -2.05015  -0.90548
C     0.09536  -3.54491  -1.04494
O     0.18963  -1.45505  -2.30511
C     0.69599  -0.22641  -2.14448
O     0.95579   0.50761  -3.06923
C     0.85708  -0.03592  -0.60646
C     1.77732   1.04612  -0.11620
C     2.44363   0.89207   1.11022
C     3.23854   1.91958   1.62240
C     3.37307   3.12129   0.92063
C     2.70461   3.28651  -0.29534
C     1.91052   2.25866  -0.81057
N     1.18798  -1.42437  -0.23729
C     2.52196  -1.88778  -0.61167
H    -1.09327   3.67273  -1.85762
H    -1.39176   4.41120  -0.24156
H    -2.70455   3.50857  -1.08300
H    -0.22239   1.12770   1.85936
H    -2.86666   1.01616   1.10632
H    -2.46624   0.72933   2.80236
H    -3.63682  -1.26590   0.98992
H    -3.05959  -1.54642   2.63604
H    -1.52456  -2.93815   1.26242
H    -0.72126  -1.16789   3.11343
H     0.57258  -1.41870   1.90412
H    -3.20709  -0.89057  -0.98435
H    -2.14392  -1.47746  -2.26502
H    -2.79196  -2.61475  -1.05846
H     0.95077  -3.87399  -1.64947
H    -0.82742  -3.88643  -1.53229
H     0.16055  -4.00976  -0.05173
H     2.33507  -0.03614   1.67112
H     3.75151   1.78024   2.57684
H     3.99382   3.92605   1.32149
H     2.79757   4.22335  -0.84967
H     1.39217   2.39989  -1.75717
H     2.64789  -2.92820  -0.28430
H     3.27726  -1.28334  -0.09549
H     2.72495  -1.83728  -1.69821
