25
Generated by autodE on: 2022-06-12. E = -631.292505 Ha
C    -3.94463  -0.65370  -0.03211
C    -2.56811  -0.15151   0.16388
O    -2.32460   0.90194   0.93010
C    -0.89830   1.12834   0.98697
O    -0.47839   2.06615   1.66443
C    -0.34975   0.13257   0.16643
C     1.05773  -0.04533  -0.16492
C     2.03651   0.39070   0.75964
C     3.39670   0.27581   0.47780
C     3.82925  -0.28652  -0.72864
C     2.87532  -0.71793  -1.65496
C     1.51080  -0.59263  -1.38654
N    -1.43703  -0.63958  -0.30873
C    -1.35370  -1.86099  -1.10407
H    -4.65333   0.11450   0.30187
H    -4.13264  -0.88823  -1.08978
H    -4.11573  -1.56945   0.55898
H     1.71546   0.82252   1.70785
H     4.12723   0.62137   1.21380
H     4.89561  -0.38183  -0.94563
H     3.19352  -1.14605  -2.60895
H     0.79920  -0.90041  -2.15118
H    -2.25196  -2.46409  -0.93398
H    -0.47558  -2.43446  -0.78651
H    -1.27202  -1.62507  -2.17328
