51
Generated by autodE on: 2022-06-12. E = -1171.459107 Ha. Imaginary frequency = -398.2 cm-1
C    -1.44422   3.48894  -1.56417
O    -1.13628   2.39677  -0.69686
C    -1.53576   1.16393  -1.10543
O    -2.17917   1.01565  -2.13927
C    -1.08494   0.12395  -0.19745
C    -0.85767   0.42135   1.27675
C    -2.29258   0.36059   1.89904
C    -2.63882  -1.15685   1.80946
C    -1.36666  -1.76961   1.14181
C    -0.28913  -0.90267   1.80713
C    -1.36828  -1.27354  -0.31737
C    -2.46583  -1.81500  -1.21276
C     0.28764  -1.96694  -1.32519
C     0.24007  -3.45247  -1.43378
O     0.04460  -1.27169  -2.50918
C     0.62019  -0.01971  -2.41239
O     0.45733   0.81450  -3.28972
C     1.36881  -0.02521  -1.17046
C     2.10222   1.09603  -0.60069
C     2.56739   1.09129   0.73342
C     3.20023   2.21169   1.27062
C     3.37778   3.36531   0.50064
C     2.91283   3.38741  -0.81827
C     2.28364   2.27085  -1.36580
N     1.37634  -1.33226  -0.75202
C     2.40449  -2.03179   0.00896
H    -0.99575   4.37823  -1.10467
H    -1.01399   3.32455  -2.56249
H    -2.53250   3.62406  -1.65828
H    -0.29951   1.33706   1.50133
H    -3.00352   0.99877   1.35440
H    -2.26314   0.70599   2.94400
H    -3.55476  -1.35659   1.23748
H    -2.77181  -1.59295   2.81055
H    -1.28098  -2.85910   1.25012
H    -0.32223  -0.95713   2.90569
H     0.72687  -1.11471   1.48647
H    -2.27554  -1.62088  -2.27312
H    -3.42544  -1.33518  -0.96540
H    -2.58628  -2.89840  -1.06457
H     1.09215  -3.82774  -2.02459
H    -0.68674  -3.75788  -1.93373
H     0.26891  -3.90921  -0.43564
H     2.41781   0.22252   1.37130
H     3.54838   2.18410   2.30564
H     3.87053   4.24192   0.92715
H     3.04197   4.28357  -1.42967
H     1.92380   2.29675  -2.39240
H     2.06312  -2.32726   1.01042
H     3.28109  -1.38343   0.10253
H     2.69901  -2.93534  -0.54228
