23
Generated by autodE on: 2022-06-18. E = -351.521380 Ha
C     3.60046  -0.30930   1.11482
C     2.56914  -0.01043   0.29450
C     2.80195   0.57068  -1.07676
C     1.19529  -0.25106   0.73129
C     0.07864   0.00326   0.00374
C    -1.26347  -0.25378   0.48470
C    -2.42608  -0.03035  -0.17885
C    -2.51612   0.53708  -1.56714
C    -3.74874  -0.35201   0.45755
H     4.63784  -0.13925   0.81349
H     3.42815  -0.73161   2.10966
H     3.87468   0.70342  -1.27599
H     2.30586   1.54968  -1.18343
H     2.38213  -0.08124  -1.86087
H     1.07923  -0.67328   1.73679
H     0.18726   0.42342  -0.99976
H    -1.33140  -0.67369   1.49563
H    -1.54097   0.76832  -2.01465
H    -3.12065   1.46128  -1.56358
H    -3.04163  -0.16887  -2.23440
H    -3.63410  -0.76193   1.47176
H    -4.30941  -1.08249  -0.15318
H    -4.38539   0.54925   0.51454
