20
Generated by autodE on: 2022-06-18. E = -552.863859 Ha
C    -2.95704  -0.01197  -0.17715
C    -1.67828   0.79544  -0.23106
O    -1.71355   2.01827  -0.43864
C    -0.45482   0.07051  -0.03352
C    -0.28718  -1.31382   0.19603
O    -1.00710  -2.28919   0.31186
O     1.14331  -1.48679   0.29934
C     1.73591  -0.30875   0.14634
C     3.20763  -0.19316   0.21845
N     0.84604   0.63755  -0.04981
C     1.15977   2.05104  -0.23859
H    -2.95658  -0.79963  -0.94675
H    -3.80727   0.66367  -0.33894
H    -3.06328  -0.51838   0.79474
H     3.60174   0.32834  -0.66645
H     3.64090  -1.19887   0.27414
H     3.50454   0.37653   1.11368
H     0.66291   2.64277   0.53845
H     2.24397   2.18647  -0.17053
H     0.80297   2.38023  -1.22121
