43
Generated by autodE on: 2022-06-18. E = -904.347886 Ha. Imaginary frequency = -504.6 cm-1
C    -2.76167  -2.24151  -2.81156
C    -2.90065  -0.85426  -2.24654
O    -3.98537  -0.28205  -2.20395
C    -1.67890  -0.23096  -1.70772
C    -1.32426  -1.17227   0.19197
C    -0.51956  -0.20145   0.87465
C    -1.18162   0.60538   1.97999
C     0.89397  -0.57068   1.08659
C     1.71864  -0.07020   2.03680
C     3.10875  -0.46855   2.17185
C     4.00707  -0.02184   3.08366
C     5.42065  -0.53434   3.09029
C     3.70108   0.99703   4.14598
C    -0.33759   1.16745  -0.69331
C     0.30048   2.42705  -0.23347
O     0.47593   0.38148  -1.51470
C    -0.31578  -0.56711  -2.11679
O     0.15929  -1.46643  -2.77911
N    -1.60398   1.08119  -1.23360
C    -2.74320   1.82713  -0.71924
H    -2.14524  -2.21238  -3.72360
H    -2.24579  -2.90628  -2.10200
H    -3.75911  -2.63499  -3.04583
H    -2.38422  -1.24209   0.44822
H    -0.87086  -2.11092  -0.13611
H    -0.68843   1.57268   2.15019
H    -2.23940   0.79778   1.76069
H    -1.13595   0.04882   2.93171
H     1.30111  -1.30881   0.38602
H     1.32893   0.66806   2.74256
H     3.45657  -1.21348   1.44529
H     6.14087   0.29355   2.95883
H     5.59717  -1.27585   2.29699
H     5.66640  -0.99979   4.06209
H     2.66502   1.35930   4.12335
H     4.37111   1.86958   4.04601
H     3.89512   0.57721   5.14916
H     1.20555   2.18134   0.33981
H    -0.37365   3.00701   0.40704
H     0.59025   3.04402  -1.09921
H    -2.37754   2.71824  -0.19802
H    -3.38686   2.13978  -1.54905
H    -3.34070   1.21871  -0.02567
