13
Generated by autodE on: 2022-10-21. E = -344.660259 Ha
C    -3.08304   0.58371   0.35565
O    -2.22189  -0.57980   0.18445
C    -0.96560  -0.36654   0.07188
C     0.24016  -0.21898  -0.03984
C     1.65954  -0.01741  -0.17011
C     2.13365   1.41180  -0.11338
O     2.43310  -0.96052  -0.31903
H    -2.79549   1.11664   1.27231
H    -4.10127   0.18888   0.43821
H    -2.98836   1.23764  -0.52201
H     1.83125   1.86929   0.84257
H     1.65708   1.99615  -0.91718
H     3.22634   1.44734  -0.21932
