26
Generated by autodE on: 2022-10-21. E = -648.487961 Ha
C    -4.25160   1.33485  -0.21252
O    -2.84397   1.09540  -0.25548
C    -2.43965  -0.17494   0.00946
O    -3.24124  -1.06617   0.26942
C    -1.00136  -0.24125  -0.06398
N    -0.27408  -1.35982   0.09190
C    -0.94399  -2.66471   0.28816
N     1.01773  -1.46102   0.05439
C     1.79251  -0.28710  -0.00072
C     2.76441  -0.19041  -1.01089
C     3.63648   0.90010  -1.05054
C     3.56314   1.89789  -0.07452
C     2.60954   1.79562   0.94624
C     1.72596   0.71796   0.98591
H    -4.65830   1.11644   0.78665
H    -4.77923   0.71822  -0.95603
H    -4.38652   2.39801  -0.44610
H    -0.45981   0.67818  -0.26318
H    -0.15459  -3.42020   0.30742
H    -1.49560  -2.64801   1.23442
H    -1.64617  -2.84321  -0.53275
H     2.82424  -0.98180  -1.76075
H     4.38087   0.96590  -1.84773
H     4.24868   2.74778  -0.10254
H     2.55469   2.56289   1.72241
H     0.99057   0.64421   1.78943
