39
Generated by autodE on: 2022-10-21. E = -993.130258 Ha. Imaginary frequency = -462.7 cm-1
C    -3.75361  -1.27089   1.69550
O    -3.14940  -0.42397   0.71055
C    -2.07472  -0.91507   0.07531
O    -1.64319  -2.04020   0.26520
C    -1.54033   0.06443  -0.88694
C    -0.81277   1.78170  -0.01233
O    -1.90181   2.19098   0.62608
C    -1.83412   2.12360   2.06229
C     0.39042   2.06306  -0.26654
C     1.71500   1.96088  -0.73571
C     1.99381   2.41740  -2.15591
O     2.65490   1.54875  -0.02401
N     0.62605  -0.82982  -1.48562
C     1.19961  -1.15555  -0.26816
C     2.46035  -1.77944  -0.45040
C     3.26442  -2.12442   0.62911
C     2.84329  -1.82712   1.92921
C     1.61684  -1.18317   2.12855
C     0.79113  -0.85803   1.05733
N    -0.52463  -0.33694  -1.74234
C    -0.67722   0.12575  -3.13324
H    -3.03114  -1.51626   2.48751
H    -4.59075  -0.69893   2.11204
H    -4.12075  -2.20045   1.23647
H    -2.33686   0.58035  -1.42541
H    -2.80455   2.47422   2.43464
H    -1.65977   1.08877   2.39139
H    -1.02566   2.77445   2.43055
H     1.11685   2.86293  -2.64439
H     2.82155   3.14475  -2.14635
H     2.32745   1.54649  -2.74283
H     2.78184  -1.97907  -1.47343
H     4.22515  -2.61411   0.45725
H     3.46992  -2.08845   2.78480
H     1.29123  -0.93146   3.14016
H    -0.13213  -0.33989   1.27419
H    -1.63121  -0.23728  -3.53556
H    -0.67406   1.22602  -3.12994
H     0.16691  -0.25157  -3.71651
