23
Generated by autodE on: 2022-10-06. E = -683.789947 Ha
C     0.99124  -2.26935  -1.51923
C     1.07427  -0.99699  -0.69178
C    -0.23986  -0.57507  -0.04039
C    -0.59635  -1.34314   1.24303
O     0.28258  -1.38036   2.14858
O    -1.73943  -1.86723   1.30572
C     0.02504   0.92729   0.19052
C    -1.29637   1.69404   0.35148
O    -1.81215   1.67962   1.49923
O    -1.78967   2.21806  -0.68343
N     0.79219   1.35113  -0.98116
N     1.48751   0.18076  -1.49834
C     2.92351   0.38791  -1.43522
H     0.25057  -2.16084  -2.32788
H     0.69279  -3.12194  -0.88763
H     1.96367  -2.51580  -1.97477
H     1.79916  -1.15104   0.13148
H    -1.06683  -0.68175  -0.76169
H     0.61570   1.03546   1.11416
H     0.07914   1.60077  -1.67033
H     3.43902  -0.51302  -1.80347
H     3.22048   1.22952  -2.07882
H     3.28884   0.59310  -0.40630
