13
Generated by autodE on: 2022-10-13. E = -228.681342 Ha
C    -0.88920  -1.22652  -1.31998
C    -0.09146  -0.96846  -0.09541
N     0.18264   0.27249   0.27170
C     0.97881   0.48539   1.49007
N    -0.16541   1.39813  -0.32017
H    -1.89350  -0.76109  -1.26183
H    -1.01982  -2.30576  -1.47718
H    -0.40610  -0.80067  -2.22213
H     0.29326  -1.76677   0.53658
H     1.89098   1.03287   1.21842
H     1.23442  -0.47378   1.95283
H     0.39143   1.09892   2.18569
H    -0.70799   1.13218  -1.14876
