13
Generated by autodE on: 2022-10-06. E = -228.673974 Ha
C    -1.92183  -0.07635  -0.51001
C    -0.82669  -0.21158   0.49501
N     0.45156  -0.00687   0.21957
C     0.80992   0.37596  -1.15863
N     1.49348  -0.09868   1.02706
H    -1.99762   0.94211  -0.93445
H    -2.88340  -0.30268  -0.02781
H    -1.81202  -0.76691  -1.36677
H    -1.04158  -0.49298   1.52898
H     0.30680   1.31347  -1.42957
H     1.89502   0.50469  -1.19231
H     0.49791  -0.41026  -1.85861
H     1.10645  -0.36965   1.94189
