10
Generated by autodE on: 2022-10-06. E = -455.051675 Ha
O     2.13735  -0.06433   1.40261
C     1.96879  -0.03325   0.15269
O     2.88315  -0.02498  -0.71822
C     0.55066  -0.00403  -0.38168
C    -0.55066   0.00409   0.38169
C    -1.96878   0.03334  -0.15268
O    -2.13734   0.06436  -1.40261
O    -2.88316   0.02485   0.71822
H     0.44391   0.01307  -1.47180
H    -0.44390  -0.01302   1.47181
