44
Generated by autodE on: 2022-06-04. E = -3810.897504 Ha
C    -4.20622   1.85267  -1.34714
N    -3.39590   0.72136  -0.94382
C    -2.87403   0.60620   0.27979
O    -3.08914   1.37954   1.21844
C    -1.90966  -0.58020   0.47073
C    -2.17338  -1.10218   1.90153
O    -1.48325  -0.88334   2.87133
O    -3.27579  -1.84811   1.92052
C    -3.62105  -2.47195   3.16796
N    -2.07662  -1.60358  -0.55246
C    -0.83335  -2.37090  -0.66479
C    -0.75686  -3.12445  -1.99310
C    -0.74771  -3.36354   0.44291
N    -0.73327  -4.11998   1.32353
C     0.27636  -1.30665  -0.42456
C     0.78479  -0.56204  -1.69384
O    -0.25451   0.39664  -1.93440
C    -0.18139   1.03858  -0.66229
C     1.31324   1.33399  -0.56369
Br    1.98459   2.71821   0.48894
C     1.93168   0.33027  -1.21634
C     3.33382  -0.08785  -1.31055
O     3.65649  -1.21725  -1.64285
O     4.20034   0.87364  -0.99722
C     5.59171   0.52644  -1.03106
C    -0.43065  -0.13859   0.33281
H    -3.58266   2.71632  -1.63390
H    -4.82834   1.56798  -2.20546
H    -4.85709   2.15856  -0.51716
H    -3.06046   0.05388  -1.63473
H    -2.82524  -3.16830   3.46890
H    -3.76542  -1.71210   3.94866
H    -4.55453  -3.01573   2.98506
H    -2.89231  -2.19368  -0.38909
H     0.21156  -3.63502  -2.09410
H    -1.55863  -3.87535  -2.04581
H    -0.88625  -2.41747  -2.82276
H     1.11935  -1.74466   0.11975
H     0.99221  -1.17275  -2.57589
H    -0.85270   1.89973  -0.59188
H     6.13492   1.43217  -0.73811
H     5.88676   0.21634  -2.04408
H     5.80165  -0.28935  -0.32417
H    -0.01554   0.07651   1.32142
