25
Generated by autodE on: 2022-06-04. E = -701.724102 Ha
C    -4.10190  -0.84169   0.76846
N    -2.81621  -0.20962   0.56115
C    -1.72218  -0.92016   0.25000
O    -1.74455  -2.16305   0.10386
C    -0.44264  -0.19880   0.06908
N     0.54439  -1.07088  -0.27756
C     1.79864  -1.07320  -0.68691
C     2.49274  -2.38512  -0.91304
C     2.54684   0.09020  -1.01548
N     3.27773   0.91785  -1.39033
C    -0.26043   1.19898   0.38197
O    -1.17420   1.99780   0.59173
O     1.02880   1.54822   0.47276
C     1.33632   2.92736   0.69285
H    -4.08409  -1.52795   1.63110
H    -4.40928  -1.42256  -0.11569
H    -4.85199  -0.06361   0.95561
H    -2.69798   0.79714   0.66549
H     0.11391  -2.01810  -0.23278
H     1.80482  -3.22328  -0.73338
H     3.35361  -2.48509  -0.23160
H     2.87679  -2.44914  -1.94349
H     0.97085   3.25238   1.67782
H     2.42918   3.00131   0.64999
H     0.88494   3.55406  -0.09001
