44
Generated by autodE on: 2022-06-04. E = -3810.812185 Ha. Imaginary frequency = -313.5 cm-1
C    -4.14429   2.33403  -0.09137
N    -3.55323   1.12908   0.45395
C    -3.06674   0.16462  -0.34119
O    -3.13934   0.20842  -1.58218
C    -2.36761  -0.98119   0.31125
C    -2.61355  -1.29599   1.72370
O    -2.75378  -0.45340   2.60260
O    -2.70011  -2.60500   1.95266
C    -2.77219  -3.03706   3.31776
N    -1.96057  -1.90810  -0.60018
C    -0.93359  -2.77778  -0.54449
C    -0.46378  -3.38667  -1.83724
C    -0.59042  -3.51469   0.63040
N    -0.19101  -4.18253   1.49808
C     0.65254  -1.10934   0.16274
C     1.14349  -0.61658  -1.21045
O    -0.02559   0.08938  -1.66696
C    -0.13958   0.94265  -0.52324
C     1.28224   1.54541  -0.50897
Br    1.64633   3.23824   0.17385
C     2.10230   0.57076  -0.94792
C     3.56385   0.52455  -1.01211
O     4.31361   1.46931  -0.85284
O     3.99087  -0.72527  -1.26919
C     5.40901  -0.91478  -1.34732
C    -0.17103  -0.09878   0.61825
H    -3.40427   2.93065  -0.65062
H    -4.97176   2.09352  -0.77604
H    -4.53405   2.94153   0.73443
H    -3.39807   1.03244   1.45562
H    -2.79883  -4.13182   3.28484
H    -1.88579  -2.69613   3.87176
H    -3.68121  -2.64613   3.79588
H    -2.14243  -1.54318  -1.54511
H     0.59115  -3.68077  -1.75097
H    -1.04675  -4.28977  -2.08492
H    -0.56537  -2.66291  -2.65859
H     1.21973  -1.80481   0.77729
H     1.48800  -1.35735  -1.93635
H    -0.96139   1.65852  -0.60895
H     5.88778  -0.64525  -0.39445
H     5.83620  -0.30142  -2.15420
H     5.56117  -1.97936  -1.55955
H    -0.38942   0.16177   1.65184
