36
Generated by autodE on: 2022-06-14. E = -883.475803 Ha
C     4.47837   1.05332   1.30999
O     3.18517   0.64422   0.86788
C     3.15214  -0.40549  -0.00140
O     4.18383  -0.98114  -0.36005
C     1.83308  -0.76303  -0.43654
C     1.58653  -1.81747  -1.44861
O     0.87116   0.03995   0.03552
C    -0.42956   0.08112  -0.06521
C    -1.22564  -1.08263  -0.47466
C    -1.00746  -2.33253   0.13848
C    -1.80236  -3.42988  -0.19559
C    -2.81642  -3.29991  -1.14900
C    -3.04158  -2.06112  -1.76182
C    -2.26017  -0.95798  -1.42284
C    -1.00949   1.34481   0.36894
C    -0.18333   2.47926   0.55644
C    -0.72445   3.68617   0.98897
C    -2.09855   3.79937   1.23707
C    -2.92583   2.68542   1.05731
C    -2.39251   1.46981   0.63263
H     4.99513   0.23547   1.83509
H     5.10240   1.38384   0.46522
H     4.31376   1.89109   1.99907
H     1.13014  -2.73750  -1.04122
H     2.54933  -2.08867  -1.90103
H     0.90879  -1.45367  -2.23945
H    -0.22787  -2.43357   0.89597
H    -1.62854  -4.39104   0.29335
H    -3.43261  -4.16204  -1.41418
H    -3.82949  -1.95599  -2.51109
H    -2.43405   0.00470  -1.90667
H     0.88585   2.39964   0.35792
H    -0.07098   4.55084   1.12652
H    -2.52079   4.75029   1.56958
H    -3.99688   2.76090   1.25874
H    -3.04849   0.60637   0.52157
