36
Generated by autodE on: 2022-07-27. E = -883.469882 Ha
C    -3.90962  -1.09550   2.29101
O    -3.17205   0.09303   2.02003
C    -2.18757  -0.01444   1.06965
O    -1.91844  -1.10507   0.54503
C    -1.61784   1.24296   0.75197
C    -2.13116   2.57973   1.15787
O    -0.61082   1.30730  -0.16403
C     0.33962   0.43918  -0.41459
C     0.76600  -0.55152   0.57821
C     0.92927  -0.15922   1.92185
C     1.40756  -1.06594   2.86317
C     1.71107  -2.38190   2.48674
C     1.54121  -2.78097   1.15908
C     1.07236  -1.87209   0.20824
C     1.00538   0.64218  -1.68778
C     2.29176   0.11069  -1.94146
C     2.92045   0.33845  -3.16275
C     2.28901   1.09901  -4.15421
C     1.01689   1.63351  -3.91474
C     0.37681   1.40640  -2.70007
H    -3.24902  -1.90239   2.64445
H    -4.63023  -0.83646   3.07722
H    -4.44881  -1.44675   1.39685
H    -2.01444   3.29402   0.32539
H    -3.19327   2.52953   1.43214
H    -1.58289   3.00150   2.02246
H     0.69440   0.86379   2.22244
H     1.54920  -0.74658   3.89811
H     2.07936  -3.09210   3.23055
H     1.77099  -3.80605   0.86002
H     0.92569  -2.18953  -0.82523
H     2.80650  -0.46007  -1.16878
H     3.91651  -0.07310  -3.34025
H     2.78561   1.27275  -5.11148
H     0.51626   2.22103  -4.68767
H    -0.62491   1.80131  -2.52769
