17
Generated by autodE on: 2022-06-14. E = -372.136029 Ha
F     1.41030   1.16202  -1.43404
C     0.82517   0.38967  -0.50596
C     0.90940  -0.93955  -0.38067
C    -0.09904  -1.29449   0.70832
C    -1.52076  -1.08245   0.09097
C    -1.59022   0.46228  -0.09595
C    -0.20409   0.94368   0.44923
C    -0.00282  -0.04639   1.61655
H     1.45186  -1.63934  -1.01663
H     0.04632  -2.27124   1.18760
H    -1.63997  -1.63400  -0.85257
H    -2.29685  -1.43485   0.78745
H    -2.40027   0.90353   0.50357
H    -1.74141   0.76581  -1.14181
H    -0.12933   2.01854   0.65646
H     0.97795   0.05707   2.10334
H    -0.80361   0.00723   2.37051
