35
Generated by autodE on: 2022-07-27. E = -804.414828 Ha
C    -0.97933  -3.81579   1.43886
C    -0.99644  -2.53482   0.63552
O    -0.48556  -2.51044  -0.50575
N    -1.58309  -1.50697   1.28165
N    -1.55607  -0.31669   0.59050
C    -2.89526   0.25904   0.42324
C    -0.45865   0.25597   0.14913
C    -0.52382   1.39394  -0.79132
C     0.21992   2.55910  -0.53344
C     0.18806   3.62339  -1.43422
C    -0.55918   3.52321  -2.61292
C    -1.27792   2.35534  -2.88851
C    -1.26555   1.29520  -1.98191
C     0.87803  -0.19354   0.58827
C     1.14230  -0.48506   1.93858
C     2.42847  -0.84627   2.33599
C     3.45900  -0.94070   1.39253
C     3.20124  -0.65466   0.04898
C     1.91969  -0.27302  -0.35102
H     0.05776  -4.00646   1.76357
H    -1.28230  -4.65943   0.80012
H    -1.62456  -3.76306   2.32536
H    -2.84097   1.32410   0.17907
H    -3.43445  -0.28642  -0.36374
H    -3.41978   0.11402   1.37586
H     0.81083   2.63030   0.38147
H     0.75319   4.53281  -1.21870
H    -0.57454   4.35420  -3.32189
H    -1.84728   2.26725  -3.81633
H    -1.81036   0.37616  -2.20383
H     0.34016  -0.42383   2.67372
H     2.62933  -1.05557   3.38906
H     4.46331  -1.23335   1.70748
H     4.00131  -0.72544  -0.69115
H     1.71800  -0.04662  -1.39923
