35
Generated by autodE on: 2022-06-25. E = -804.414817 Ha
C     3.74209   1.88193   0.09686
C     2.66767   0.82669  -0.03817
O     2.26987   0.48640  -1.17406
N     2.23078   0.35367   1.14659
N     1.21253  -0.56742   1.04232
C     1.53157  -1.82914   1.71904
C     0.07527  -0.34036   0.42450
C    -0.32133   1.02397   0.01929
C    -0.16508   2.11634   0.89114
C    -0.60513   3.38262   0.50954
C    -1.18613   3.57869  -0.74944
C    -1.34080   2.49706  -1.62093
C    -0.91975   1.22327  -1.23565
C    -0.86516  -1.44162   0.13186
C    -2.22649  -1.30132   0.45533
C    -3.12733  -2.32121   0.14992
C    -2.68521  -3.47447  -0.50759
C    -1.33752  -3.60695  -0.85780
C    -0.42822  -2.59873  -0.53748
H     4.56136   1.67068  -0.60725
H     4.13326   1.95227   1.12010
H     3.30875   2.85593  -0.18729
H     0.62718  -2.41206   1.91697
H     2.02524  -1.56283   2.66194
H     2.23405  -2.40915   1.10438
H     0.29640   1.96926   1.86738
H    -0.49511   4.22286   1.19876
H    -1.52115   4.57486  -1.04762
H    -1.79414   2.64371  -2.60372
H    -1.04252   0.37741  -1.91394
H    -2.57024  -0.39548   0.95792
H    -4.18004  -2.21351   0.42018
H    -3.39421  -4.26775  -0.75522
H    -0.99314  -4.49760  -1.38785
H     0.61939  -2.69242  -0.82779
