58
Generated by autodE on: 2022-06-25. E = -1155.911710 Ha. Imaginary frequency = -358.0 cm-1
C    -0.02710   0.62834   3.74680
C    -0.09594   2.13802   3.67372
O    -0.48575   2.79969   4.66594
N     0.29603   2.65332   2.50536
N     0.10398   3.97475   2.25239
C    -1.28915   4.40342   2.13668
C     1.11796   4.54884   1.53269
C     0.89283   5.92341   0.95895
C     1.63534   7.00541   1.46785
C     1.44237   8.30129   0.98491
C     0.50764   8.54374  -0.02467
C    -0.23867   7.47915  -0.53838
C    -0.05091   6.18507  -0.05063
C     2.50309   4.31158   2.07919
C     2.69342   3.98876   3.43270
C     3.97922   3.81147   3.94999
C     5.09934   3.96654   3.12914
C     4.92218   4.32428   1.78837
C     3.63773   4.49990   1.27285
C     1.10362   3.22670  -0.11968
C     0.96679   1.91649   0.38237
C    -0.31690   1.16135   0.14356
C     2.17128   1.18783   0.73993
C     2.25709  -0.15419   0.93363
C     3.48682  -0.82418   1.29103
C     3.65435  -2.15357   1.51404
C     4.99980  -2.70476   1.88973
C     2.55664  -3.17355   1.41662
H    -1.04501   0.21609   3.64407
H     0.35020   0.33259   4.73710
H     0.60974   0.19911   2.96450
H    -1.74623   4.02821   1.20720
H    -1.35416   5.49666   2.16090
H    -1.83086   3.99889   2.99933
H     2.36635   6.83402   2.25822
H     2.02788   9.12397   1.40184
H     0.36090   9.55578  -0.40906
H    -0.97381   7.65393  -1.32728
H    -0.65004   5.37628  -0.46533
H     1.83190   3.89194   4.09284
H     4.10288   3.55584   5.00510
H     6.10420   3.82340   3.53333
H     5.78872   4.46876   1.13898
H     3.51959   4.79052   0.22796
H     2.08066   3.53904  -0.48539
H     0.25265   3.62817  -0.67039
H    -0.23869   0.60230  -0.80661
H    -0.53835   0.43356   0.93422
H    -1.16611   1.85227   0.05710
H     3.07975   1.78833   0.84963
H     1.35809  -0.76441   0.81652
H     4.36581  -0.17738   1.39743
H     5.76867  -1.92072   1.95017
H     5.32947  -3.46329   1.15715
H     4.95095  -3.22361   2.86393
H     1.58190  -2.74881   1.14474
H     2.44449  -3.70480   2.37820
H     2.81761  -3.94461   0.67039
