49
Generated by autodE on: 2022-06-24. E = -1112.300420 Ha
C     5.85243   0.41282  -0.44870
C     4.71756   0.28805   0.26834
C     4.72858   0.20681   1.77153
C     3.42691   0.23415  -0.42650
C     2.22554   0.10924   0.17009
C     0.93486   0.06951  -0.58180
C    -0.12009   1.15358  -0.17019
C     0.10133   2.60978  -0.53621
O    -0.86558   3.32941  -0.80652
N     1.36541   3.05058  -0.50406
C     1.69736   4.43772  -0.76861
N    -1.33574   0.58183  -0.75643
C    -1.30166  -0.64519  -0.00997
C    -2.51616  -1.51646  -0.07314
C    -2.84154  -2.36281   0.99685
C    -3.94909  -3.20937   0.91025
C    -4.73809  -3.22069  -0.24424
C    -4.41608  -2.37800  -1.31219
C    -3.30961  -1.52909  -1.22857
O    -1.11043  -0.18218   1.41217
C    -0.36395   0.92867   1.33220
O     0.03004   1.55504   2.28658
C     0.07934  -1.26125  -0.43094
C    -0.02700  -1.96339  -1.78577
C     0.61904  -2.24957   0.60254
H     6.83160   0.45868   0.03609
H     5.82791   0.47255  -1.54105
H     5.75295   0.26200   2.16564
H     4.27128  -0.73375   2.12104
H     4.13977   1.02658   2.21588
H     3.46577   0.30827  -1.51954
H     2.17036   0.03524   1.25929
H     1.13411   0.23320  -1.64880
H     2.10932   2.39572  -0.27518
H     1.19794   5.10879  -0.05219
H     1.38837   4.73342  -1.78338
H     2.78271   4.56436  -0.67736
H    -2.15513   1.14629  -0.52054
H    -2.23214  -2.35255   1.90086
H    -4.19710  -3.86209   1.75038
H    -5.60383  -3.88381  -0.31015
H    -5.02953  -2.37870  -2.21608
H    -3.06014  -0.87351  -2.06338
H    -0.48115  -1.31407  -2.54670
H     0.98152  -2.23996  -2.13050
H    -0.62383  -2.88469  -1.70946
H     0.72820  -1.80891   1.60129
H     1.60434  -2.61970   0.28377
H    -0.05562  -3.11537   0.68250
