23
Generated by autodE on: 2022-06-24. E = -351.521383 Ha
C     3.57281  -0.40340  -1.17032
C     2.55118  -0.31176  -0.29074
C     2.78483  -0.41283   1.19494
C     1.18695  -0.11170  -0.77547
C     0.07853  -0.00863   0.00017
C    -1.25318   0.18917  -0.53495
C    -2.40897   0.30008   0.16754
C    -3.72055   0.50188  -0.53747
C    -2.50234   0.23502   1.66557
H     3.39954  -0.33017  -2.24843
H     4.60307  -0.55333  -0.83568
H     2.21715  -1.25199   1.63033
H     2.44463   0.49891   1.71356
H     3.84992  -0.56217   1.42149
H     1.07118  -0.04200  -1.86381
H     0.18561  -0.07832   1.08609
H    -1.31850   0.25349  -1.62789
H    -3.60342   0.54336  -1.63033
H    -4.20582   1.43611  -0.20208
H    -4.42584  -0.31260  -0.29239
H    -1.53434   0.09508   2.16354
H    -3.16860  -0.59118   1.97097
H    -2.96146   1.15880   2.05983
