26
Generated by autodE on: 2022-06-24. E = -760.761054 Ha
C     5.25101  -0.21387  -0.22914
N     3.88456   0.25020  -0.13614
C     2.81106  -0.57539  -0.16546
O     2.88731  -1.81357  -0.27289
C     1.51847   0.08131  -0.06143
N     0.33393  -0.64510  -0.06657
C    -0.70456   0.16021   0.03694
C    -2.11293  -0.17277   0.07621
C    -2.53940  -1.51561   0.04267
C    -3.89923  -1.81175   0.08148
C    -4.84447  -0.78120   0.15479
C    -4.42418   0.55256   0.18982
C    -3.06594   0.86152   0.15129
O    -0.27569   1.42089   0.11156
C     1.16925   1.43657   0.05377
O     1.77020   2.50013   0.10930
H     5.76029   0.21439  -1.10768
H     5.24808  -1.30613  -0.32461
H     5.82856   0.05876   0.66906
H     3.70713   1.24757  -0.04542
H     0.30136  -1.66105  -0.14796
H    -1.81160  -2.32794  -0.01057
H    -4.22486  -2.85361   0.05586
H    -5.90994  -1.01950   0.18542
H    -5.15947   1.35787   0.24744
H    -2.73430   1.90016   0.17766
