49
Generated by autodE on: 2022-06-24. E = -1112.261530 Ha. Imaginary frequency = -452.4 cm-1
C     5.25502   1.81160   0.20761
C     4.35835   0.86684   0.57374
C     4.46482   0.13933   1.88885
C     3.23196   0.56932  -0.29897
C     2.25442  -0.34745  -0.04669
C     1.09840  -0.48749  -0.87739
C    -0.34535   1.38241  -0.11075
C     0.27739   2.48822  -0.83166
O    -0.08204   2.79850  -1.98054
N     1.30399   3.07828  -0.18263
C     2.18966   4.01045  -0.84791
N    -1.43324   0.68587  -0.56684
C    -1.41907  -0.52705   0.11124
C    -2.61203  -1.39563   0.15998
C    -2.80768  -2.26331   1.24641
C    -3.91177  -3.11749   1.27254
C    -4.82894  -3.11644   0.21756
C    -4.64033  -2.24939  -0.86409
C    -3.53894  -1.39384  -0.89608
O    -0.83254  -0.24957   1.34542
C    -0.03668   0.87847   1.19353
O     0.73959   1.24746   2.06367
C     0.09672  -1.50710  -0.78409
C    -0.50191  -1.92124  -2.11830
C     0.35803  -2.67296   0.15252
H     6.09826   2.07819   0.85062
H     5.16072   2.33889  -0.74634
H     5.34133   0.47389   2.46117
H     4.54474  -0.94967   1.73641
H     3.56109   0.30846   2.49726
H     3.16544   1.15894  -1.21906
H     2.30990  -0.95425   0.85959
H     1.09902   0.10999  -1.79341
H     1.56100   2.70518   0.72944
H     1.69381   4.97609  -1.03889
H     2.53014   3.60941  -1.81586
H     3.06341   4.18513  -0.20847
H    -1.69912   0.74261  -1.54822
H    -2.09730  -2.26301   2.07321
H    -4.05574  -3.78636   2.12401
H    -5.69168  -3.78612   0.23925
H    -5.35582  -2.23748  -1.68927
H    -3.40609  -0.72272  -1.74656
H    -0.78605  -1.05008  -2.72858
H     0.24090  -2.49710  -2.69625
H    -1.38485  -2.56287  -1.98822
H     0.61771  -2.34699   1.16842
H     1.19311  -3.28337  -0.23027
H    -0.52371  -3.32618   0.21790
