37
Generated by autodE on: 2022-06-25. E = -1029.254541 Ha
C    -2.25282  -0.64838   4.05751
N    -2.37471  -0.49364   2.62410
C    -1.29613  -0.24009   1.85214
O    -0.13917  -0.24221   2.32436
C    -1.54056   0.06978   0.43902
N    -0.47321   0.29314  -0.39917
C     0.77670  -0.12693  -0.36880
C     1.12174  -1.32065   0.46638
O     0.44430  -2.32886   0.48298
O     2.29725  -1.19103   1.07187
C     2.73045  -2.30399   1.86897
C     1.75551   0.48025  -1.26788
C     1.57603   1.80090  -1.73359
C     2.47933   2.36402  -2.63348
C     3.58421   1.62923  -3.07526
C     3.78040   0.32401  -2.60940
C     2.87999  -0.24804  -1.71394
C    -2.83730   0.42558  -0.08759
O    -3.90959   0.35181   0.51535
O    -2.77506   0.86697  -1.36749
C    -4.00003   1.30177  -1.96516
H    -3.21256  -0.99520   4.46112
H    -1.98286   0.29664   4.56076
H    -1.47830  -1.38993   4.30297
H    -3.28641  -0.32954   2.19801
H    -0.70796   0.90912  -1.18526
H     2.82529  -3.20728   1.24981
H     3.70541  -2.01895   2.27980
H     2.01083  -2.48493   2.68009
H     0.74289   2.40412  -1.36632
H     2.32814   3.38928  -2.97812
H     4.29556   2.07473  -3.77416
H     4.64065  -0.25574  -2.95100
H     3.04100  -1.27161  -1.37401
H    -4.42602   2.15065  -1.41017
H    -3.74501   1.60999  -2.98597
H    -4.73119   0.48070  -1.99090
