37
Generated by autodE on: 2022-07-27. E = -1029.254342 Ha
C     1.46516  -4.82386  -0.76714
N     0.79971  -3.74127  -0.07323
C     0.84513  -2.48079  -0.53608
O     1.43717  -2.19452  -1.60266
C     0.18144  -1.39559   0.21739
N     0.35594  -0.20252  -0.42930
C    -0.12572   1.01862  -0.29513
C    -1.33991   1.28702   0.53296
O    -1.49136   2.28250   1.21053
O    -2.27821   0.36014   0.34076
C    -3.46541   0.47005   1.13922
C     0.50289   2.11589  -1.03233
C     1.85000   2.02280  -1.44478
C     2.43803   3.04458  -2.18819
C     1.70300   4.18697  -2.52117
C     0.37197   4.29871  -2.10426
C    -0.22565   3.27778  -1.36825
C    -0.28338  -1.41531   1.58416
O    -0.48902  -0.41770   2.27117
O    -0.44928  -2.66027   2.08484
C    -0.81554  -2.75832   3.46645
H     1.24633  -5.76395  -0.24598
H     2.55838  -4.68263  -0.79382
H     1.11301  -4.90680  -1.80740
H     0.33585  -3.90581   0.81461
H     1.02428  -0.35871  -1.20690
H    -3.20430   0.45498   2.20655
H    -4.00370   1.39895   0.90251
H    -4.07996  -0.40105   0.88552
H     2.45347   1.15877  -1.15880
H     3.48278   2.95508  -2.49385
H     2.16803   4.99100  -3.09588
H    -0.20905   5.18747  -2.36030
H    -1.26791   3.37674  -1.06432
H    -0.05008  -2.29582   4.10617
H    -1.78402  -2.26888   3.64442
H    -0.88940  -3.83073   3.68130
