60
Generated by autodE on: 2022-06-25. E = -1380.766665 Ha. Imaginary frequency = -291.6 cm-1
C     0.64864  -4.86173  -0.27565
N    -0.17252  -3.85057   0.35502
C    -0.34721  -2.64322  -0.21071
O     0.19206  -2.35729  -1.30327
C    -1.14804  -1.60282   0.47743
C    -1.93012  -1.74463   1.67654
O    -2.64794  -0.87842   2.17766
O    -1.80286  -2.95790   2.27213
C    -2.53988  -3.17152   3.47984
N    -1.13321  -0.43655  -0.24338
C    -1.35236   0.83613   0.17224
C    -2.68841   1.18497   0.81172
O    -2.86366   2.01032   1.68242
O    -3.68233   0.61308   0.12412
C    -5.01167   0.87333   0.59462
C    -0.96675   1.89830  -0.82086
C    -0.70211   1.58805  -2.16627
C    -0.33007   2.58735  -3.06750
C    -0.22123   3.91477  -2.64590
C    -0.50060   4.23684  -1.31408
C    -0.87534   3.24120  -0.41126
C    -0.02454   1.05485   1.81762
C     0.64721  -0.15579   2.05850
C     0.42756  -0.90881   3.34341
C     1.67179  -0.62635   1.16499
C     2.05803  -0.01528   0.00427
C     3.02125  -0.57665  -0.90791
C     3.46416  -0.01337  -2.06381
C     4.45172  -0.73069  -2.93748
C     3.01937   1.32624  -2.57554
H     0.26994  -5.12390  -1.27682
H     0.64130  -5.76281   0.34992
H     1.69064  -4.52153  -0.39176
H    -0.63311  -4.03191   1.24088
H    -2.20328  -2.48561   4.27017
H    -3.61671  -3.03055   3.30843
H    -2.33764  -4.20847   3.77304
H    -0.47405  -0.55832  -1.02206
H    -5.12411   0.51385   1.62766
H    -5.23447   1.94917   0.55271
H    -5.68220   0.32069  -0.07367
H    -0.80044   0.56550  -2.53408
H    -0.12771   2.32186  -4.10736
H     0.07268   4.69486  -3.35165
H    -0.42623   5.27163  -0.97214
H    -1.09473   3.50620   0.62314
H    -0.69991   1.42620   2.58866
H     0.50674   1.82882   1.26511
H     0.51152  -1.99670   3.20902
H     1.19403  -0.61099   4.08178
H    -0.55268  -0.67514   3.78066
H     2.13392  -1.58744   1.41618
H     1.62367   0.95257  -0.25549
H     3.41568  -1.56375  -0.63981
H     5.36877  -0.12856  -3.06907
H     4.73363  -1.71213  -2.52907
H     4.03790  -0.87957  -3.95125
H     2.49097   1.21047  -3.53813
H     3.89656   1.96395  -2.78267
H     2.35614   1.86607  -1.88914
