21
Generated by autodE on: 2022-07-27. E = -420.723345 Ha
C     2.13002  -0.41491  -0.72117
N     1.58485  -0.86252   0.53113
N     0.49608  -0.31050   0.95681
C     0.26733  -0.51694   2.40288
C    -0.39448   0.47932   0.28316
C    -1.13141   1.53642   1.05788
C    -0.82089   0.20810  -1.07303
C    -0.59472  -1.15279  -1.69775
O    -1.53307   1.02360  -1.69014
H     3.22640  -0.42709  -0.61660
H     1.89520  -1.07938  -1.56740
H     1.78106   0.59866  -0.99650
H     0.58459   0.38036   2.95138
H     0.88271  -1.36723   2.71125
H    -0.79433  -0.71057   2.59285
H    -1.55763   2.24396   0.33512
H    -0.47190   2.09155   1.74153
H    -1.96787   1.12955   1.65395
H    -1.56818  -1.49347  -2.08194
H     0.08164  -1.06560  -2.56325
H    -0.19018  -1.90680  -1.01154
