21
Generated by autodE on: 2022-06-17. E = -420.727403 Ha
C     2.93162   0.77019   0.98409
N     1.49290   0.87548   0.99677
N     0.83326   0.12149   0.18209
C     1.55711  -0.80402  -0.71584
C    -0.53877   0.20512   0.18537
C    -1.08335   1.18642   1.17672
C    -1.40885  -0.56263  -0.68167
C    -2.90505  -0.33328  -0.52063
O    -1.05933  -1.39146  -1.54870
H     3.38081   1.02576   0.00710
H     3.31758   1.48025   1.72695
H     3.29825  -0.23624   1.25702
H     0.83223  -1.35507  -1.31275
H     2.15987  -1.48566  -0.10271
H     2.22413  -0.21720  -1.36015
H    -0.69485   2.20136   0.98192
H    -2.17567   1.22441   1.16293
H    -0.75328   0.93651   2.20012
H    -3.42488  -0.98429  -1.23536
H    -3.18113   0.71339  -0.72267
H    -3.24697  -0.57331   0.49816
