44
Generated by autodE on: 2022-06-17. E = -772.210597 Ha. Imaginary frequency = -360.3 cm-1
C    -0.57045   2.36665   2.09005
C    -0.81735   2.16530   0.77835
C    -1.84856   2.99996   0.05826
C    -0.11958   1.18715  -0.07545
C     1.10708   0.57783   0.25442
C     2.18445   0.51296  -0.72275
C     3.49748   0.27991  -0.48515
C     4.06904  -0.00922   0.87492
C     4.49933   0.28505  -1.60681
N     0.50930  -1.56870   0.36449
C     0.61680  -1.90357  -1.03404
N    -0.71374  -1.34875   0.84331
C    -0.74115  -1.39993   2.31137
C    -1.64558  -0.56424   0.20893
C    -2.81876  -0.07590   1.02568
C    -2.07706  -0.83423  -1.20477
C    -2.38935  -2.26768  -1.57524
O    -2.39029   0.07670  -1.96415
H    -1.13189   3.11561   2.65525
H     0.19056   1.80284   2.63584
H    -1.35173   3.69161  -0.64499
H    -2.51190   2.36794  -0.55091
H    -2.45725   3.59636   0.75317
H    -0.30748   1.32743  -1.14399
H     1.40571   0.59385   1.30413
H     1.88721   0.69539  -1.76207
H     4.56898  -0.99456   0.87782
H     3.31556  -0.01275   1.67334
H     4.84807   0.72879   1.13811
H     4.03019   0.49429  -2.57993
H     5.28772   1.04019  -1.43333
H     5.01995  -0.68766  -1.67595
H     0.26583  -2.93274  -1.21703
H     1.67970  -1.86834  -1.30049
H     0.08034  -1.23620  -1.73359
H    -0.52617  -0.41375   2.74483
H     0.02795  -2.11108   2.62628
H    -1.72134  -1.74401   2.66249
H    -3.46449   0.54872   0.39717
H    -2.50014   0.52342   1.88962
H    -3.42651  -0.92232   1.38928
H    -2.18411  -2.44138  -2.64128
H    -3.47480  -2.39211  -1.41514
H    -1.87623  -3.00722  -0.95257
