22
Generated by autodE on: 2022-06-16. E = -683.230333 Ha
C     3.40760   0.22002   1.14275
C     2.41364  -0.17752   0.08553
O     2.72868  -0.48168  -1.06101
N     1.09091  -0.19564   0.46326
N     0.72594  -0.09065   1.78611
C    -0.49117  -0.45788   1.91432
C    -1.16591  -0.85574   0.61818
C    -2.37920   0.05364   0.44251
O    -3.40154  -0.16400   1.07177
C    -2.25342   1.22791  -0.44079
C    -1.26304   1.33720  -1.34600
C    -0.27083   0.26225  -1.55214
O     0.31132   0.15263  -2.61640
C    -0.00813  -0.70909  -0.39699
H     4.39464   0.30666   0.67227
H     3.44324  -0.54362   1.93477
H     3.12724   1.17154   1.61607
H    -0.98948  -0.45132   2.88505
H    -1.54493  -1.88650   0.67948
H    -3.05074   1.97242  -0.36808
H    -1.21978   2.17279  -2.04979
H     0.28790  -1.67106  -0.83678
