12
Generated by autodE on: 2022-06-16. E = -381.636098 Ha
O     0.60324   2.59621  -0.07749
C     0.32584   1.40182  -0.04177
C    -1.08359   0.94204  -0.00847
C    -1.38804  -0.36691   0.03015
C    -0.32584  -1.40182   0.04190
O    -0.60325  -2.59622   0.07742
C     1.08359  -0.94204   0.00846
C     1.38804   0.36691  -0.03016
H    -1.84846   1.72223  -0.01761
H    -2.41847  -0.72894   0.05490
H     1.84845  -1.72223   0.01753
H     2.41847   0.72893  -0.05498
