22
Generated by autodE on: 2022-06-16. E = -683.141108 Ha. Imaginary frequency = -357.6 cm-1
C     3.17179   0.10840  -0.82295
C     2.25060   0.57194   0.26362
O     2.15973   1.72887   0.64476
N     1.52167  -0.48469   0.84243
N     0.71509  -0.17102   1.77341
C    -0.41821  -0.28407   2.14630
C    -1.40814  -1.18238   0.46809
C    -2.32327  -0.01190   0.34152
O    -3.35633   0.07059   0.99568
C    -1.91900   1.05693  -0.60319
C    -0.91308   0.87012  -1.47605
C    -0.17680  -0.41781  -1.54920
O     0.57940  -0.65114  -2.49281
C    -0.41807  -1.39474  -0.47621
H     2.71513  -0.68840  -1.42450
H     4.07734  -0.30794  -0.34898
H     3.45931   0.95735  -1.45560
H    -1.05469  -0.17660   3.02350
H    -1.77659  -2.01195   1.07841
H    -2.50679   1.97758  -0.57571
H    -0.62472   1.63185  -2.20428
H     0.09465  -2.35301  -0.56003
