67
Generated by autodE on: 2022-06-13. E = -1585.092969 Ha
C    16.71894 -17.89393  12.60051
N    16.85916 -17.41369  11.24137
C    17.95305 -17.64785  10.50802
O    18.95903 -18.19446  10.96883
C    17.92849 -17.09960   9.04683
C    18.29816 -15.60980   9.34415
O    17.47761 -14.84583   9.85651
N    19.56753 -15.23710   9.11309
C    20.02391 -13.89608   9.42599
C    19.00026 -17.82606   8.18349
C    18.59249 -19.12163   7.47484
C    18.22037 -20.34310   8.32306
C    17.04909 -20.25135   9.31114
C    15.72449 -19.66651   8.78151
C    14.61629 -19.88263   9.81575
C    14.03375 -18.83891  10.54383
C    13.03379 -19.08896  11.49094
C    12.59546 -20.39381  11.72391
C    13.15872 -21.44632  10.99188
C    14.15409 -21.18964  10.04845
C    15.74803 -18.26334   8.22104
C    16.56799 -17.19265   8.36030
N    16.12563 -16.07745   7.58723
C    17.01316 -15.62830   6.51261
N    14.82628 -16.40567   7.08611
C    14.68602 -17.86055   7.17420
C    14.97207 -18.53976   5.80133
O    15.33837 -19.71433   5.69775
N    14.76980 -17.72832   4.75521
C    15.06447 -18.12630   3.39465
C    13.25059 -18.17048   7.61102
O    12.52419 -17.35030   8.13313
O    12.90591 -19.42472   7.36372
C    11.62644 -19.86198   7.85404
H    15.73495 -17.59468  12.98065
H    16.79087 -18.99292  12.63791
H    17.49891 -17.47596  13.25657
H    16.09484 -16.90436  10.81441
H    20.21565 -15.88581   8.68363
H    19.87644 -13.66878  10.49330
H    19.47555 -13.14149   8.83970
H    21.09220 -13.82154   9.18962
H    19.31875 -17.13230   7.39295
H    19.87208 -18.01194   8.82703
H    17.78427 -18.91126   6.76017
H    19.45862 -19.41271   6.85685
H    18.00516 -21.16232   7.61559
H    19.10676 -20.66285   8.89788
H    17.34837 -19.74137  10.22987
H    16.82405 -21.27895   9.63493
H    15.44792 -20.29123   7.91917
H    14.33680 -17.81094  10.34971
H    12.59355 -18.25447  12.04225
H    11.81424 -20.59081  12.46186
H    12.81443 -22.47109  11.15216
H    14.57833 -22.01621   9.47212
H    16.53488 -14.78798   5.99321
H    17.23508 -16.42415   5.77846
H    17.96086 -15.26403   6.92679
H    14.13849 -16.00187   7.72544
H    14.61965 -16.74832   4.98979
H    14.71082 -19.15130   3.21674
H    14.55476 -17.44703   2.69934
H    16.14762 -18.09656   3.18577
H    11.56916 -20.93159   7.62599
H    10.81996 -19.31627   7.34446
H    11.56312 -19.69622   8.93787
