44
Generated by autodE on: 2022-06-13. E = -959.551692 Ha
C     2.48358   3.02568   2.69202
N     2.36677   1.63746   2.29241
C     1.40516   1.22291   1.45950
O     0.56185   1.98567   0.97641
C     1.45229  -0.28446   1.06368
C     1.86542  -1.17018   2.25230
O     2.96075  -1.00769   2.81236
N     1.00583  -2.12502   2.62095
C     1.30382  -3.04880   3.69922
C     0.18563  -0.65368   0.43872
C    -0.60126  -0.81480  -0.46891
C    -1.14870  -0.86398  -1.82079
C    -2.48769  -0.16670  -1.98489
C    -2.75998   1.02895  -1.30202
C    -3.96938   1.69915  -1.50005
C    -4.92239   1.18406  -2.38628
C    -4.65645  -0.00443  -3.07267
C    -3.44505  -0.67453  -2.87235
C    -0.06076  -0.20623  -2.73153
C     1.39964  -0.62912  -2.47133
C     2.21920   0.18046  -1.42448
C     2.53623  -0.47305  -0.06548
H     2.65637   3.67785   1.82119
H     3.33047   3.12575   3.38186
H     1.56972   3.37494   3.19864
H     2.99514   0.92671   2.66847
H     0.13565  -2.22148   2.10560
H     1.53841  -2.50474   4.62668
H     2.16634  -3.68785   3.45155
H     0.42816  -3.68578   3.87152
H    -1.26183  -1.91731  -2.12552
H    -2.01550   1.43270  -0.61060
H    -4.17010   2.62739  -0.95926
H    -5.86941   1.70712  -2.53950
H    -5.39565  -0.41460  -3.76521
H    -3.23936  -1.60491  -3.40856
H    -0.14561   0.88721  -2.62105
H    -0.33676  -0.43929  -3.77226
H     1.92243  -0.52477  -3.43503
H     1.44037  -1.70567  -2.23191
H     1.74817   1.16388  -1.26266
H     3.19830   0.39761  -1.87905
H     2.67706  -1.55745  -0.19979
H     3.48168  -0.07525   0.32975
