23
Generated by autodE on: 2022-06-13. E = -625.463062 Ha
C    -2.67492   2.42256  -0.80091
N    -2.07946   1.16035  -0.42987
N    -0.81375   1.17085  -0.36057
C     0.04901   0.17113  -0.04347
C    -0.38316  -1.20119   0.29933
O     0.42270  -2.10282   0.58490
N    -1.71594  -1.43057   0.28677
C    -2.24530  -2.73887   0.60401
C     1.42996   0.65744  -0.09355
O     1.70060   1.82229  -0.38717
O     2.37161  -0.24027   0.19900
C     3.72871   0.22000   0.15342
H    -3.29557   2.28051  -1.70031
H    -1.92679   3.20926  -0.99820
H    -3.34840   2.75840   0.00460
H    -0.29439   2.05128  -0.56743
H    -2.33482  -0.65617   0.04303
H    -1.96685  -3.05272   1.62348
H    -1.87103  -3.50769  -0.09181
H    -3.33974  -2.70464   0.53395
H     4.34575  -0.64635   0.41912
H     3.88771   1.03414   0.87541
H     3.98587   0.57292  -0.85591
