67
Generated by autodE on: 2022-06-13. E = -1585.001380 Ha. Imaginary frequency = -241.6 cm-1
C    17.01383 -17.93964  12.57660
N    17.11693 -17.40412  11.23566
C    18.12577 -17.67239  10.39315
O    19.14550 -18.28453  10.71647
C    17.94950 -17.11003   8.93788
C    18.29796 -15.61121   9.09983
O    17.52281 -14.85959   9.69978
N    19.47664 -15.19312   8.61751
C    19.90369 -13.81235   8.74721
C    18.87591 -17.89516   7.97196
C    18.35559 -19.24109   7.43710
C    17.95251 -20.38866   8.38378
C    16.69182 -20.29909   9.26993
C    15.42069 -19.66079   8.64402
C    14.22948 -19.85090   9.57226
C    13.79284 -18.84229  10.44071
C    12.73140 -19.07006  11.32404
C    12.09029 -20.31122  11.34935
C    12.51365 -21.32210  10.47859
C    13.57251 -21.09090   9.59864
C    15.72791 -18.24188   8.34763
C    16.55168 -17.31468   8.47789
N    15.83384 -15.80021   6.83755
C    15.97152 -14.38258   7.11512
N    14.60924 -16.20760   6.91850
C    14.26381 -17.51472   6.77220
C    14.87681 -18.37629   5.70873
O    14.44462 -19.50815   5.44591
N    15.92664 -17.84748   5.04809
C    16.65999 -18.63219   4.07754
C    12.91653 -17.75367   7.34854
O    12.33117 -16.88890   7.98953
O    12.42053 -18.96817   7.15588
C    11.16234 -19.25572   7.78488
H    16.96141 -17.13334  13.32531
H    16.11041 -18.56304  12.67139
H    17.89671 -18.55603  12.78366
H    16.31868 -16.90591  10.85593
H    20.07560 -15.84743   8.12801
H    19.89974 -13.49795   9.80203
H    20.92156 -13.71699   8.35049
H    19.23952 -13.13391   8.18808
H    19.05099 -17.26361   7.08795
H    19.84331 -18.03333   8.47588
H    17.52747 -19.04406   6.74447
H    19.16916 -19.63763   6.80660
H    17.82581 -21.26894   7.73088
H    18.80020 -20.62727   9.04818
H    16.43080 -21.32571   9.57275
H    16.89894 -19.76405  10.20574
H    15.19171 -20.18320   7.70098
H    14.27635 -17.86460  10.41702
H    12.40295 -18.26934  11.99123
H    11.26009 -20.48873  12.03704
H    12.01202 -22.29295  10.48136
H    13.89551 -21.88131   8.91580
H    15.59726 -13.80677   6.25053
H    17.03255 -14.14522   7.23904
H    15.41513 -14.06873   8.01562
H    13.92332 -15.66464   7.46901
H    16.33294 -16.99743   5.44698
H    16.02371 -18.90958   3.22258
H    17.05150 -19.56302   4.52078
H    17.50414 -18.03673   3.70773
H    10.96346 -20.31354   7.58186
H    10.36909 -18.62861   7.35317
H    11.22512 -19.07971   8.86662
