38
Generated by autodE on: 2022-06-18. E = -805.830648 Ha
C     1.03142   2.13599  -1.08980
C     0.53491   1.75167   0.09397
C     0.66955   2.58368   1.33866
C    -0.18250   0.42403   0.27258
C    -1.18146   0.05683  -0.87589
C    -2.55419  -0.27329  -0.36718
C    -3.70405   0.37747  -0.62224
C    -5.00461  -0.10045  -0.03129
C    -3.82726   1.59413  -1.49941
C    -0.51745  -1.14126  -1.59358
O     0.82400  -1.23258  -1.09455
C     0.81330  -0.79638   0.24387
C     0.29737  -1.87022   1.12738
N    -0.14715  -2.73357   1.78900
C     2.23368  -0.44301   0.72494
O     2.43141  -0.23667   1.92438
N     3.16068  -0.39082  -0.23194
C     4.52177   0.03534   0.02787
H     1.57021   3.08246  -1.19283
H     0.92832   1.52456  -1.99020
H     1.25518   3.49674   1.15852
H     1.15280   2.00566   2.14237
H    -0.32744   2.87401   1.71416
H    -0.70142   0.43321   1.23881
H    -1.22401   0.90405  -1.56642
H    -2.59477  -1.14701   0.29605
H    -5.69770  -0.42654  -0.82749
H    -5.51607   0.71663   0.50684
H    -4.85967  -0.93990   0.66476
H    -2.86985   1.94136  -1.90944
H    -4.51017   1.39147  -2.34317
H    -4.27781   2.42739  -0.93272
H    -0.45332  -1.01528  -2.68186
H    -1.04980  -2.08224  -1.37313
H     2.84455  -0.52691  -1.18771
H     4.86120  -0.36589   0.99224
H     5.17662  -0.33971  -0.76866
H     4.59975   1.13494   0.06281
