23
Generated by autodE on: 2022-06-18. E = -351.521381 Ha
C     3.57516  -1.18972  -0.32353
C     2.56098  -0.35904   0.00391
C     2.82080   0.97669   0.65235
C     1.17966  -0.74902  -0.27174
C     0.07859  -0.00595   0.00464
C    -1.27191  -0.44003  -0.28923
C    -2.42032   0.24187  -0.04847
C    -2.48312   1.60473   0.58072
C    -3.75422  -0.34589  -0.41344
H     3.38332  -2.15861  -0.79492
H     4.61761  -0.92280  -0.12874
H     2.31695   1.04882   1.63054
H     3.89656   1.14279   0.80475
H     2.42716   1.80116   0.03481
H     1.04347  -1.73019  -0.74245
H     0.20737   0.97349   0.47315
H    -1.36007  -1.42853  -0.75617
H    -3.09920   1.57473   1.49683
H    -2.98321   2.31627  -0.10001
H    -1.50016   2.01651   0.84310
H    -3.65928  -1.34301  -0.86789
H    -4.40302  -0.42774   0.47717
H    -4.29075   0.31117  -1.12150
