15
Generated by autodE on: 2022-07-27. E = -454.218368 Ha
C    -2.03289   0.16759  -1.86261
O    -0.90070   0.20132  -1.28680
C    -0.55658  -0.08651  -0.01104
C    -1.54123  -0.49735   0.89651
N    -2.39738  -0.83642   1.61927
C     0.84597   0.04077   0.36889
O     1.18560  -0.21869   1.53808
N     1.70975   0.44132  -0.59327
C     3.12830   0.61397  -0.36564
H    -2.02924   0.45316  -2.91543
H    -2.93037  -0.13132  -1.31025
H     1.34426   0.62832  -1.52074
H     3.35002   0.38012   0.68211
H     3.72120  -0.05647  -1.00860
H     3.44148   1.65079  -0.56832
