15
Generated by autodE on: 2022-06-18. E = -454.215923 Ha
C     2.36649  -1.16196  -0.63010
O     1.85001  -0.01740  -0.43372
C     0.59420   0.37968  -0.11147
C     0.46462   1.77237   0.00662
N     0.30938   2.92788   0.11581
C    -0.48779  -0.57910   0.07753
O    -0.28807  -1.80285  -0.04679
N    -1.70169  -0.05765   0.38848
C    -2.87746  -0.86987   0.61814
H     1.76079  -2.06406  -0.54498
H     3.42979  -1.13518  -0.87920
H    -1.79370   0.94905   0.47969
H    -2.61527  -1.92352   0.46791
H    -3.68653  -0.60547  -0.08146
H    -3.25597  -0.74502   1.64569
