64
Generated by autodE on: 2022-06-27. E = -1513.210767 Ha
C     1.63298   2.80804  -2.87518
O     1.44628   2.16183  -1.60680
C     1.54557   0.83263  -1.58186
O     1.84727   0.17131  -2.55455
C     1.25484   0.27671  -0.17003
C     2.52702   0.44284   0.66549
C     3.78955   0.19042   0.10687
C     4.94569   0.29227   0.88350
C     4.85823   0.64841   2.23331
C     3.60475   0.90438   2.79500
C     2.44793   0.80310   2.01566
N     0.11011   0.94029   0.43758
C    -1.12343   0.21040   0.10616
C    -1.52565   0.51037  -1.35920
C    -1.80763   1.85713  -1.66192
C    -2.10500   2.26520  -2.95983
C    -2.13944   1.32732  -3.99933
C    -1.87699  -0.01140  -3.71387
C    -1.57408  -0.41657  -2.40657
C    -2.26232   0.65920   1.02834
C    -3.60030   0.41817   0.67344
C    -4.64662   0.79001   1.52070
C    -4.37531   1.43229   2.73286
C    -3.04996   1.70173   3.08287
C    -2.00342   1.31875   2.23814
C    -0.59993  -1.25764   0.40309
C    -1.41591  -2.44924  -0.12580
N    -2.66941  -2.57965   0.33709
O    -0.92797  -3.28001  -0.90189
C    -0.43516  -1.45814   1.93592
C     0.53990  -2.55595   2.23432
C     1.52194  -2.86494   1.36361
N     1.73052  -2.22318   0.16211
C     2.49578  -2.90083  -0.86741
C     0.78592  -1.22681  -0.29137
H     1.44879   3.87406  -2.70078
H     2.65972   2.65145  -3.23568
H     0.91805   2.41255  -3.61008
H     3.87696  -0.09397  -0.94296
H     5.91952   0.09094   0.43065
H     5.76232   0.72766   2.84168
H     3.52268   1.18586   3.84773
H     1.47047   1.00595   2.45151
H     0.06018   1.92875   0.20530
H    -1.78985   2.60384  -0.86423
H    -2.31186   3.31873  -3.16221
H    -2.37059   1.64135  -5.01984
H    -1.90159  -0.75852  -4.51077
H    -1.36346  -1.46914  -2.23879
H    -3.82921  -0.05935  -0.28012
H    -5.67866   0.58608   1.22571
H    -5.19267   1.73029   3.39376
H    -2.82435   2.21633   4.02011
H    -0.97339   1.53839   2.51469
H    -3.08095  -1.91677   0.98350
H    -3.22483  -3.37174   0.02854
H    -0.09600  -0.50710   2.36885
H    -1.41183  -1.66533   2.39445
H     0.47730  -3.09068   3.18353
H     2.23687  -3.66516   1.57486
H     2.90338  -2.17040  -1.57922
H     3.33874  -3.43980  -0.41097
H     1.88172  -3.62680  -1.43473
H     0.62690  -1.41585  -1.35512
