44
Generated by autodE on: 2022-07-27. E = -1055.470709 Ha
C     0.70249   1.97562  -2.95272
O     0.72015   1.54572  -1.59384
C     1.65349   0.61579  -1.25850
O     2.57233   0.33810  -2.03276
C     1.46432   0.06290   0.05690
N     0.24834   0.18398   0.71136
C    -1.00875   0.19974   0.27689
C    -1.35086  -0.19795  -1.09966
C    -2.27682   0.54970  -1.84660
C    -2.60085   0.17513  -3.15218
C    -2.01376  -0.95629  -3.72398
C    -1.10234  -1.71722  -2.97939
C    -0.76663  -1.33925  -1.68157
C    -2.04540   0.59448   1.23242
C    -3.36157   0.09508   1.11085
C    -4.33404   0.42341   2.05201
C    -4.02195   1.25757   3.13283
C    -2.72611   1.76661   3.26099
C    -1.74843   1.44736   2.31879
C     2.51737  -0.62930   0.78949
C     3.89281  -0.46848   0.48305
C     4.87639  -1.11174   1.22943
C     4.53794  -1.93275   2.31400
C     3.18859  -2.10590   2.63186
C     2.19473  -1.47719   1.87900
H     0.56547   1.12114  -3.63295
H    -0.14821   2.66147  -3.04613
H     1.63401   2.49902  -3.21613
H     0.33659   0.23551   1.73084
H    -2.72811   1.44084  -1.40736
H    -3.31261   0.77340  -3.72550
H    -2.26635  -1.24969  -4.74544
H    -0.65149  -2.61153  -3.41549
H    -0.04973  -1.93324  -1.11199
H    -3.61243  -0.57191   0.28555
H    -5.34356   0.01971   1.94638
H    -4.78884   1.51558   3.86657
H    -2.47774   2.43281   4.09024
H    -0.75594   1.89384   2.40917
H     4.18318   0.17448  -0.34602
H     5.92711  -0.96235   0.96686
H     5.31531  -2.43332   2.89566
H     2.89944  -2.75244   3.46448
H     1.14945  -1.67332   2.12708
