25
Generated by autodE on: 2022-06-16. E = -648.281315 Ha
N    -4.26500   0.86276  -0.94946
C    -3.23338   1.04594  -0.45167
C    -1.91432   1.26956   0.17411
C    -1.71919   0.44472   1.45144
C    -1.21018  -0.87836   0.88651
C    -0.30524  -0.39230  -0.27788
C    -0.35478  -1.33069  -1.41705
N    -0.39702  -2.06759  -2.31173
C     1.14764  -0.17772   0.15481
C     1.66992   1.11302   0.27930
C     2.98611   1.29568   0.71769
C     3.78469   0.19271   1.02794
C     3.26346  -1.09991   0.89835
C     1.95043  -1.28545   0.46330
O    -0.88687   0.84251  -0.72418
H    -1.80109   2.35095   0.34260
H    -0.95180   0.93468   2.06617
H    -2.63999   0.34180   2.03915
H    -2.04205  -1.47564   0.48596
H    -0.65081  -1.48537   1.60762
H     1.04682   1.97239   0.03188
H     3.38620   2.30768   0.81429
H     4.81245   0.33742   1.36887
H     3.88215  -1.96775   1.13784
H     1.54799  -2.29698   0.36507
