25
Generated by autodE on: 2022-06-16. E = -648.173555 Ha. Imaginary frequency = -239.8 cm-1
N    -3.81559   0.11909  -1.67654
C    -2.96660   0.68750  -1.10956
C    -2.01899   1.45082  -0.39420
C    -2.44524   0.26122   1.76078
C    -1.38219  -0.58320   1.82237
C    -0.11968  -0.00577  -0.33218
C    -0.69941  -1.13250  -0.98021
N    -1.11227  -2.08750  -1.50598
C     1.29185  -0.00556   0.03853
C     1.87207   1.13796   0.62549
C     3.21278   1.12596   1.00196
C     3.99452  -0.02021   0.80908
C     3.42265  -1.15859   0.23208
C     2.08288  -1.15536  -0.15422
O    -0.72953   1.16601  -0.34249
H    -2.23221   2.50249  -0.20154
H    -2.40693   1.25119   2.22122
H    -3.42521  -0.08520   1.42383
H    -1.47014  -1.63156   1.52774
H    -0.45145  -0.28593   2.31025
H     1.26525   2.02991   0.78530
H     3.65245   2.01773   1.45439
H     5.04457  -0.02514   1.10936
H     4.02440  -2.05688   0.07752
H     1.64713  -2.04805  -0.60688
