40
Generated by autodE on: 2022-06-19. E = -1010.592286 Ha
C    -3.08590   2.52458  -0.59377
C    -2.20626   1.94378   0.47000
O    -2.12347   2.39588   1.59479
C    -1.39042   0.71438   0.07961
O    -0.54219   0.32332   1.21871
C    -0.28622  -0.99583   1.02971
O     0.39737  -1.65193   1.77527
C    -1.01645  -1.38759  -0.26484
C    -1.30685  -2.85845  -0.40714
C    -0.20891  -0.73068  -1.42754
C     1.25415  -1.15882  -1.54704
C     2.14993  -0.39812  -0.60710
C     3.30134  -1.08260  -0.01278
N     3.94241  -0.47672   1.02452
O     3.69386  -2.18394  -0.44382
C     1.88359   0.92093  -0.40563
N     0.78092   1.55119  -0.91173
C     0.60644   2.97160  -0.64432
C    -0.43162   0.78967  -1.16137
N    -2.17704  -0.46111  -0.22026
C    -3.22050  -0.78525   0.75392
H    -2.45161   3.06021  -1.32015
H    -3.79390   3.23165  -0.14352
H    -3.61629   1.73707  -1.14753
H    -0.36077  -3.41514  -0.46325
H    -1.87970  -3.04875  -1.32624
H    -1.87035  -3.24346   0.45424
H    -0.74533  -1.00712  -2.34334
H     1.57491  -0.98422  -2.58961
H     1.34551  -2.24031  -1.37694
H     3.49928   0.25898   1.56086
H     4.70511  -0.98274   1.46206
H     2.57021   1.56984   0.14450
H     1.56616   3.49193  -0.76258
H     0.23151   3.16398   0.37548
H    -0.10505   3.39728  -1.36547
H    -0.97878   1.25792  -1.98821
H    -3.99545  -0.00637   0.73184
H    -2.85143  -0.87923   1.79160
H    -3.69683  -1.73119   0.46686
