20
Generated by autodE on: 2022-06-19. E = -457.715320 Ha
C    -2.98639  -0.48317  -0.97118
N    -1.79516   0.07352  -0.35110
C    -1.84142   1.35984   0.20130
C    -0.76102   1.96481   0.71963
C     0.60489   1.32476   0.75601
C     0.56334  -0.05261   0.11437
C     1.77223  -0.88547   0.00906
N     2.91295  -0.34914   0.51154
O     1.78178  -2.02212  -0.50668
C    -0.59484  -0.57003  -0.38455
H    -3.26529   0.07360  -1.88183
H    -2.79874  -1.52917  -1.24426
H    -3.83708  -0.45139  -0.27284
H    -2.82491   1.83294   0.18197
H    -0.87753   2.96720   1.13799
H     0.96856   1.26336   1.80244
H     1.34304   1.97729   0.24625
H     3.76900  -0.88973   0.45318
H     2.94912   0.56963   0.93431
H    -0.59591  -1.56043  -0.84229
