22
Generated by autodE on: 2022-06-03. E = -662.344260 Ha
C     3.73911   0.29741   0.06246
N     2.35676  -0.13453   0.10797
C     1.34864   0.72818  -0.11604
O     1.55659   1.93058  -0.37386
C    -0.02626   0.18870  -0.04319
O    -0.08215  -1.09082   0.24531
C    -1.04584  -1.95098   0.40738
C    -0.64721  -3.26336   0.71915
N    -0.36064  -4.36608   0.97909
C    -1.26873   0.95091  -0.26117
O    -2.37825   0.39006  -0.17304
N    -1.12947   2.25539  -0.55459
C    -2.28037   3.09975  -0.78796
H     4.00321   0.69161  -0.93184
H     3.93461   1.08997   0.80215
H     4.38354  -0.56122   0.28511
H     2.14501  -1.10435   0.31510
H    -2.08309  -1.64074   0.30066
H    -0.17214   2.61250  -0.59985
H    -1.93546   4.12122  -0.98899
H    -2.94979   3.11796   0.08747
H    -2.86987   2.74919  -1.65106
