49
Generated by autodE on: 2022-06-03. E = -1626.016002 Ha. Imaginary frequency = -179.6 cm-1
C     2.78087   1.26093   3.36754
N     2.57404   1.03804   1.95050
C     2.08590  -0.13087   1.49210
O     1.91314  -1.10895   2.24962
C     1.71936  -0.20478   0.06585
C     1.55864  -1.45549  -0.69977
O     1.44421  -1.43367  -1.94156
N     1.56832  -2.59111   0.01877
C     1.43396  -3.89814  -0.58116
O     1.82455   0.95384  -0.57827
C     1.22801   1.30381  -1.69302
C     1.37694   2.65654  -2.06830
N     1.43124   3.77508  -2.39632
C    -1.12644   1.22716  -0.86040
Cl   -1.82357   0.85459  -2.42878
C    -1.33902   2.63917  -0.33769
C    -2.74328   2.61687   0.34638
C    -2.50437   1.71249   1.59051
C    -1.00154   1.30288   1.43774
C    -0.42055   2.61715   0.88894
C    -0.99420   0.36475   0.22302
C    -1.30093  -1.06323   0.35284
C    -1.34709  -1.64494   1.63989
C    -1.65955  -2.99270   1.81365
C    -1.93377  -3.80331   0.70832
C    -1.87661  -3.24899  -0.57356
C    -1.56067  -1.90345  -0.75263
H     3.44537   0.49409   3.79263
H     3.24310   2.24584   3.50568
H     1.82949   1.23380   3.92499
H     2.62802   1.82722   1.31654
H     1.64530  -2.47712   1.03239
H     0.84045  -3.83186  -1.50158
H     0.92544  -4.57060   0.12200
H     2.41530  -4.33649  -0.83535
H     0.92457   0.54290  -2.40695
H    -1.19188   3.43295  -1.07909
H    -3.03243   3.63807   0.63471
H    -3.51456   2.22497  -0.33153
H    -3.16635   0.83636   1.62211
H    -2.63855   2.27271   2.52756
H    -0.53904   0.90715   2.34764
H     0.64555   2.57964   0.65107
H    -0.60330   3.46268   1.56756
H    -1.13022  -1.03939   2.51835
H    -1.68828  -3.41162   2.82230
H    -2.18030  -4.85881   0.84404
H    -2.07121  -3.87313  -1.44882
H    -1.49932  -1.50871  -1.76231
