22
Generated by autodE on: 2022-07-27. E = -513.059844 Ha
C     2.57658   1.01853  -0.92951
N     1.61302   0.17112  -0.25496
C     0.90354   0.61982   0.80481
O     1.20543   1.66807   1.39876
C    -0.18543  -0.23928   1.32557
C    -0.38282  -0.26597   2.80761
N    -1.02136  -0.93712   0.56110
C    -1.33937  -0.95839  -0.76580
C    -2.19475  -2.08587  -1.27219
C    -0.92151   0.06211  -1.62524
N    -0.61764   0.91356  -2.37458
H     2.09870   1.92597  -1.33452
H     3.02328   0.45639  -1.75868
H     3.37772   1.33172  -0.24310
H     1.31539  -0.67445  -0.72881
H    -1.07023  -1.07440   3.09989
H     0.57419  -0.40583   3.33443
H    -0.81179   0.68683   3.16541
H    -1.60380  -1.59013   1.09639
H    -2.84689  -2.46184  -0.46594
H    -2.83638  -1.74881  -2.09953
H    -1.59771  -2.94040  -1.63873
