12
Generated by autodE on: 2022-06-17. E = -381.636095 Ha
O     1.86612  -1.90437  -0.04569
C     1.00748  -1.02838  -0.02526
C     1.37667   0.40780  -0.00644
C     0.43607   1.36813   0.01785
C    -1.00748   1.02838   0.02521
O    -1.86612   1.90437   0.04571
C    -1.37667  -0.40780   0.00644
C    -0.43607  -1.36813  -0.01785
H     2.44557   0.63380  -0.01271
H     0.68417   2.43202   0.03250
H    -2.44557  -0.63380   0.01274
H    -0.68417  -2.43202  -0.03247
