37
Generated by autodE on: 2022-06-17. E = -821.917020 Ha
C    -2.62514   1.38983   1.12544
N    -1.90964   0.40409   0.33797
C    -2.54569  -0.31955  -0.65787
C    -1.90991  -1.14936  -1.50695
C    -0.41485  -1.28589  -1.50248
C     0.20656  -0.86978  -0.14241
C     0.09348  -2.07216   0.80071
N    -0.90421  -2.04598   1.69905
O     0.86855  -3.02994   0.70219
C    -0.47409   0.41033   0.40547
C     0.27734   1.55786  -0.37595
C    -0.49991   2.15762  -1.54598
C     0.63558   2.64245   0.56839
N     0.91999   3.49306   1.30511
O     1.48119   0.96518  -0.85349
C     1.67667  -0.36652  -0.30118
C     2.53166  -1.12525  -1.30510
C     2.41801  -0.26438   1.03639
H    -2.21491   1.41915   2.14757
H    -3.68707   1.11344   1.18739
H    -2.55783   2.41056   0.70522
H    -3.63270  -0.20803  -0.66990
H    -2.49560  -1.71789  -2.23129
H     0.02828  -0.66525  -2.29893
H    -0.11106  -2.31925  -1.72707
H    -1.05727  -2.86317   2.28249
H    -1.60212  -1.30690   1.68874
H    -0.20623   0.51468   1.46539
H    -1.37911   2.71172  -1.19107
H    -0.83151   1.36416  -2.22594
H     0.15458   2.85020  -2.09459
H     2.65115  -2.16668  -0.98097
H     2.08977  -1.11334  -2.30937
H     3.52657  -0.65877  -1.36389
H     1.82067   0.22398   1.81917
H     3.33703   0.32203   0.89183
H     2.69732  -1.26359   1.39632
