17
Generated by autodE on: 2022-07-27. E = -364.110107 Ha
C     1.23356  -2.26170  -1.17848
C     0.76769  -1.19578  -0.25777
C     1.16811  -1.14561   1.16554
O    -0.00617  -0.31289  -0.78051
C    -0.64691   0.80167  -0.32832
C    -1.44047   1.49932  -1.39024
C    -0.59531   1.23875   0.99109
N    -0.62144   1.69642   2.07835
H     0.92690  -3.25325  -0.79996
H     0.82925  -2.11552  -2.18858
H     2.33735  -2.27304  -1.22172
H     0.28496  -1.18930   1.82588
H     1.69128  -0.19987   1.39095
H     1.83215  -1.98674   1.40044
H    -1.92153   2.39095  -0.96367
H    -2.23797   0.85760  -1.80788
H    -0.80795   1.83257  -2.23309
