20
Generated by autodE on: 2022-06-17. E = -457.715320 Ha
C     2.99395  -1.06927   0.05208
N     1.80696  -0.23796   0.16936
C     1.94589   1.12041   0.48122
C     0.89994   1.95899   0.55110
C    -0.52337   1.52473   0.30163
C    -0.57304   0.04637  -0.04827
C    -1.84729  -0.62457  -0.35032
N    -2.95543   0.15751  -0.30949
O    -1.93797  -1.83719  -0.63118
C     0.55742  -0.71396  -0.09141
H     3.63567  -0.73568  -0.78049
H     2.69377  -2.10827  -0.13290
H     3.58696  -1.03636   0.97968
H     2.97122   1.44649   0.66502
H     1.08872   3.00489   0.80373
H    -0.97194   2.13861  -0.50604
H    -1.14898   1.74192   1.19180
H    -3.85606  -0.26486  -0.50598
H    -2.92082   1.14249  -0.08035
H     0.49083  -1.77306  -0.34538
