37
Generated by autodE on: 2022-06-17. E = -821.828296 Ha. Imaginary frequency = -279.5 cm-1
C    -2.74944   1.68817   0.67104
N    -2.16731   0.50727   0.05912
C    -2.72602  -0.04403  -1.09618
C    -2.08868  -0.98138  -1.81830
C    -0.67294  -1.38470  -1.49728
C    -0.35094  -1.10261  -0.03721
C     0.19812  -2.21118   0.76410
N     0.13905  -2.13669   2.12127
O     0.67920  -3.22850   0.22498
C    -1.00803  -0.01442   0.56114
C     0.55639   1.83293  -0.34501
C    -0.20083   2.57955  -1.40073
C     0.79660   2.41395   0.90745
N     0.89038   2.94183   1.95443
O     1.37926   0.87997  -0.87784
C     1.91914  -0.15796  -0.28649
C     2.62563  -1.07667  -1.22031
C     2.37041  -0.10217   1.13314
H    -2.33720   2.61774   0.24625
H    -2.54306   1.68461   1.75098
H    -3.83752   1.68585   0.51919
H    -3.73086   0.31198  -1.33150
H    -2.59772  -1.42976  -2.67462
H     0.02155  -0.83723  -2.16524
H    -0.50643  -2.45016  -1.70904
H     0.68842  -2.80862   2.64659
H    -0.17083  -1.30477   2.60601
H    -0.80808   0.28063   1.59326
H    -0.58709   3.52820  -1.00386
H    -1.05750   1.99452  -1.77868
H     0.45192   2.81045  -2.26046
H     2.46863  -2.11805  -0.90322
H     2.27344  -0.94505  -2.25148
H     3.71292  -0.88068  -1.18754
H     1.60349   0.23983   1.83431
H     3.22243   0.60041   1.19636
H     2.72662  -1.09158   1.44482
