45
Generated by autodE on: 2022-06-03. E = -1126.109791 Ha
C    -3.18911   2.44720  -1.63281
N    -2.39000   1.26954  -1.36227
C    -2.48448   0.59313  -0.21105
O    -3.32274   0.84424   0.66108
C    -1.43030  -0.52673  -0.02462
C    -2.05853  -1.58532   0.93014
C    -2.13277  -1.29590   2.40520
O    -2.45210  -2.64328   0.47670
C    -0.10766   0.04005   0.58956
C     0.20418   1.54168   0.28138
O     0.69210   1.48373  -1.06359
C     1.77923   0.58669  -0.79584
C     2.47011   1.28075   0.37923
C     3.88684   1.14528   0.74552
C     4.69496   0.15132  -0.04857
O     4.39690   1.80782   1.64850
C     1.46357   1.86915   1.07343
C     1.42502   2.56633   2.37966
C     1.04821  -0.65233  -0.19772
C     0.35253  -1.53887  -1.24839
C     0.44326  -2.97430  -0.87409
N     0.48910  -4.10053  -0.59609
N    -1.00836  -1.05352  -1.31393
C    -1.91969  -1.74293  -2.21154
H    -4.24821   2.24905  -1.41419
H    -3.08798   2.71349  -2.69238
H    -2.86768   3.30579  -1.01861
H    -1.60314   1.03418  -1.96123
H    -1.23492  -1.72868   2.87990
H    -3.01217  -1.80298   2.82572
H    -2.16086  -0.22376   2.62810
H    -0.06517  -0.13842   1.66667
H    -0.62571   2.24720   0.38905
H     2.36738   0.39601  -1.69913
H     4.74085   0.46886  -1.10355
H     5.71154   0.07918   0.35910
H     4.21122  -0.83896  -0.03555
H     2.40488   2.58190   2.86888
H     1.07393   3.60391   2.24116
H     0.68617   2.07789   3.03863
H     1.72149  -1.23672   0.43757
H     0.83501  -1.45488  -2.23723
H    -1.59817  -1.57921  -3.25392
H    -2.93278  -1.33653  -2.10159
H    -1.97256  -2.83055  -2.03436
