21
Generated by autodE on: 2022-06-03. E = -499.581900 Ha
C     2.75486  -0.36821   0.72354
C     1.75781   0.64269   0.21484
O     2.05134   1.83666   0.12496
C     0.43824   0.12714  -0.15402
C    -0.71157   0.80240  -0.39560
C    -1.04477   2.24343  -0.40976
C    -1.78039  -0.30438  -0.56303
C    -1.99311  -0.92685   0.83435
C    -0.86596  -1.60257   1.07817
C     0.01575  -1.36719  -0.16850
O    -0.99196  -1.32614  -1.19600
H     3.67003   0.13833   1.05659
H     2.32311  -0.95257   1.55271
H     3.00080  -1.08569  -0.07695
H    -1.45014   2.52934  -1.39625
H    -1.84977   2.44221   0.32033
H    -0.17480   2.86923  -0.18232
H    -2.67063  -0.03792  -1.14357
H    -2.86551  -0.76583   1.46647
H    -0.56196  -2.15505   1.96670
H     0.79298  -2.10640  -0.38512
