24
Generated by autodE on: 2022-07-27. E = -626.433045 Ha
C    -1.23607   3.38227  -0.99001
N    -0.54175   2.15872  -0.64687
C    -1.14615   1.08462  -0.08382
O    -2.32295   1.10918   0.30174
C    -0.27391  -0.11560   0.05989
C    -0.33417  -0.97629   1.22731
C    -1.23103  -0.57565   2.37850
O     0.28995  -2.04725   1.29478
N     0.43608  -0.52439  -1.04802
C    -0.10110  -0.25060  -2.40425
C     1.56386  -1.22717  -1.01737
C     2.42537  -1.27098   0.09536
N     3.21648  -1.28686   0.95265
H    -1.15770   3.58759  -2.06974
H    -2.29383   3.27627  -0.72273
H    -0.81920   4.24271  -0.44277
H     0.44284   2.09228  -0.88246
H    -0.95409  -1.18085   3.25190
H    -2.28462  -0.76603   2.12674
H    -1.14108   0.49349   2.61741
H    -1.18252  -0.09437  -2.34670
H     0.39474   0.62965  -2.83136
H     0.10974  -1.12306  -3.03412
H     1.89791  -1.69892  -1.94277
