24
Generated by autodE on: 2022-06-03. E = -626.436229 Ha
C     2.31280  -1.34554   1.30276
N     2.40605  -0.97367  -0.09546
C     1.53244  -0.24877  -0.81448
O     1.69570  -0.02340  -2.02107
C     0.33617   0.32558  -0.08780
C     0.46829   1.60053   0.57708
C     1.84827   2.22109   0.59965
O    -0.48175   2.18702   1.12723
N    -0.84572  -0.34167  -0.19911
C    -0.80175  -1.63923  -0.91508
C    -2.01787   0.08078   0.29125
C    -3.20541  -0.65639   0.15705
N    -4.23606  -1.20569   0.09052
H     1.40599  -0.91689   1.74568
H     2.26967  -2.44038   1.41255
H     3.18432  -0.97440   1.86374
H     3.21233  -1.31078  -0.61904
H     1.77061   3.24237   0.99419
H     2.52071   1.63894   1.25001
H     2.29521   2.24728  -0.40534
H    -1.79214  -2.10078  -0.91133
H    -0.47753  -1.46056  -1.94598
H    -0.08737  -2.29815  -0.40792
H    -2.02415   1.03439   0.81538
