45
Generated by autodE on: 2022-06-03. E = -1126.011329 Ha. Imaginary frequency = -281.3 cm-1
C    -3.56184   2.19088  -1.17887
N    -2.57311   1.19372  -0.82153
C    -2.92890  -0.02644  -0.39501
O    -4.10688  -0.35173  -0.19674
C    -1.81397  -1.01340  -0.12664
C    -1.86214  -1.70213   1.15818
C    -2.56096  -1.00638   2.30518
O    -1.39197  -2.83294   1.31779
C     0.42016  -0.11676   1.09449
C     0.22901   1.36303   0.74823
O     0.26948   1.30393  -0.69063
C     1.54319   0.63121  -0.77244
C     2.40978   1.61124   0.05602
C     3.84688   1.83810  -0.11753
C     4.54326   0.98085  -1.14440
O     4.46570   2.68031   0.53515
C     1.57803   2.06170   1.02907
C     1.79096   2.92678   2.20952
C     1.29043  -0.59102   0.13560
C     0.11597  -2.11630  -1.10746
C     0.50055  -3.22183  -0.29931
N     1.05589  -4.13136   0.17813
N    -1.07840  -1.46079  -1.17963
C    -1.34303  -0.90690  -2.53118
H    -4.27234   2.34867  -0.35347
H    -4.13816   1.88619  -2.06877
H    -3.04977   3.13670  -1.39511
H    -1.58407   1.37207  -0.99848
H    -2.09409  -1.33401   3.24430
H    -3.61817  -1.31369   2.32114
H    -2.52443   0.08893   2.23226
H     0.25263  -0.53265   2.08545
H    -0.66566   1.87158   1.12088
H     1.83484   0.44467  -1.80952
H     5.62275   1.17942  -1.13234
H     4.35386  -0.08702  -0.94664
H     4.13909   1.19593  -2.14753
H     2.83032   3.26183   2.29455
H     1.12639   3.80698   2.15722
H     1.49947   2.37845   3.12315
H     2.04507  -1.36120   0.28140
H     0.64450  -2.14618  -2.06301
H    -0.80797   0.04022  -2.67232
H    -2.41848  -0.75924  -2.66649
H    -1.00038  -1.63557  -3.27222
