51
Generated by autodE on: 2022-06-24. E = -1146.820698 Ha
C    -0.07039   2.77144  -1.47694
N    -0.75488   1.76376  -0.69510
C    -1.03646   0.53900  -1.13985
O    -0.85728   0.15090  -2.30607
C    -1.64701  -0.41867  -0.09108
C    -3.09920  -0.77478  -0.50412
O    -4.00921  -0.72326   0.32968
N    -3.27079  -1.17675  -1.76751
C    -4.57375  -1.55355  -2.28107
C    -0.80666  -1.71615   0.04196
C     0.04988  -1.52688   1.30582
C     0.45628  -2.85998   1.94384
C     1.29942  -0.69923   1.09691
C     1.79131  -0.25589  -0.07435
C     3.00704   0.53082  -0.19293
C     3.50495   1.06759  -1.33343
C     2.86556   0.93128  -2.68721
C     4.77383   1.87249  -1.31429
C    -0.98985  -0.70908   2.20160
C    -1.95881  -1.63058   2.83119
N    -2.76563  -2.31567   3.30715
C    -0.26278   0.04173   3.34593
C    -0.00006   1.50290   3.16735
O     0.06860  -0.58607   4.33327
N    -1.64993   0.17065   1.24699
H     0.99806   2.81953  -1.21299
H    -0.51956   3.75864  -1.29640
H    -0.16099   2.52837  -2.54239
H    -0.85766   1.87963   0.31230
H    -2.47741  -1.06066  -2.39784
H    -4.45458  -1.94831  -3.29739
H    -5.02973  -2.33019  -1.64917
H    -5.26282  -0.69347  -2.31323
H    -0.21887  -1.93003  -0.85745
H    -1.48100  -2.56781   0.20467
H     1.14742  -3.38575   1.26899
H    -0.41437  -3.50795   2.12082
H     0.97003  -2.69457   2.90214
H     1.86863  -0.48864   2.00969
H     1.26358  -0.48328  -1.00069
H     3.55520   0.70949   0.73956
H     1.90739   0.39765  -2.67675
H     3.54814   0.40759  -3.37979
H     2.69153   1.92969  -3.12448
H     5.21186   1.93489  -0.30736
H     4.59018   2.89854  -1.68006
H     5.52448   1.43471  -1.99633
H     0.63833   1.86193   3.98468
H     0.46536   1.70472   2.19253
H    -0.96159   2.04179   3.17864
H    -2.60589   0.38716   1.53068
