23
Generated by autodE on: 2022-06-24. E = -351.521385 Ha
C     3.60721  -0.11928  -1.12653
C     2.56051  -0.23238  -0.27951
C     2.75365  -0.66545   1.15127
C     1.20845   0.06732  -0.74653
C     0.07827  -0.00699   0.00044
C    -1.23970   0.30257  -0.51521
C    -2.41511   0.24888   0.16085
C    -3.70854   0.60408  -0.51646
C    -2.54789  -0.15652   1.60141
H     3.46354   0.19542  -2.16482
H     4.62918  -0.33734  -0.80415
H     2.38963   0.10424   1.85203
H     2.18290  -1.58348   1.36914
H     3.81356  -0.85778   1.36955
H     1.12192   0.37751  -1.79488
H     0.15537  -0.31533   1.04665
H    -1.27533   0.61277  -1.56659
H    -4.41346  -0.24619  -0.48506
H    -3.56167   0.89553  -1.56683
H    -4.21080   1.43556   0.01005
H    -3.01328   0.65673   2.18599
H    -3.22528  -1.02401   1.69257
H    -1.59358  -0.41688   2.07697
