28
Generated by autodE on: 2022-07-27. E = -795.247239 Ha
C     1.25340   3.23811   0.29738
N     0.52501   1.99722   0.48791
C    -0.06820   1.37844  -0.54377
O    -0.21950   1.90221  -1.65548
C    -0.71326   0.06434  -0.23342
N    -0.20748  -0.89006   0.51171
C     1.05975  -1.16829   0.95473
C     1.16150  -2.14589   1.97138
N     1.25929  -2.94223   2.81977
C     2.24099  -0.69837   0.24727
C     3.57785  -1.17405   0.75653
O     2.14545   0.01789  -0.75364
C    -2.13665  -0.22191  -0.61956
O    -2.69844  -1.21469  -0.13232
N    -2.70903   0.62669  -1.47796
C    -4.06278   0.42753  -1.95498
H     0.62297   3.97646  -0.21736
H     2.16230   3.07660  -0.30527
H     1.54077   3.63461   1.27852
H     0.69152   1.47636   1.34434
H    -0.94563  -1.58266   0.74436
H     4.37492  -0.69950   0.17052
H     3.69842  -0.92367   1.82222
H     3.66117  -2.26893   0.66552
H    -2.11018   1.34318  -1.88987
H    -4.75612   0.30348  -1.11026
H    -4.36483   1.30407  -2.54023
H    -4.13726  -0.46948  -2.59179
