19
Generated by autodE on: 2022-10-21. E = -605.996727 Ha
C    -3.37080   1.07156   0.51576
N    -2.26814   0.36626  -0.10316
C    -1.01192   0.51076   0.35592
O    -0.73131   1.23252   1.31888
C     0.03856  -0.26290  -0.38122
N    -0.21180  -0.97763  -1.46492
O    -1.29501  -1.17435  -2.06157
C     1.48427  -0.32784  -0.01784
O     2.28544  -0.93179  -0.71433
O     1.80390   0.29638   1.10152
C     3.18795   0.25031   1.49034
H    -4.29721   0.80853  -0.00881
H    -3.22882   2.16317   0.46352
H    -3.47250   0.79832   1.57814
H    -2.40930  -0.22174  -0.92538
H     0.64162  -1.42926  -1.85632
H     3.81645   0.71353   0.71667
H     3.25127   0.81763   2.42541
H     3.50445  -0.79018   1.64959
