33
Generated by autodE on: 2022-10-21. E = -913.755068 Ha. Imaginary frequency = -511.9 cm-1
C     2.86387  -2.39781   0.96950
N     2.14749  -1.58615   0.00839
C     1.61043  -0.39553   0.38008
O     1.84191   0.08255   1.50344
C     0.74087   0.26693  -0.61755
C     0.26944   1.64640  -0.54240
O    -0.34795   2.17976  -1.46398
O     0.50183   2.28828   0.61070
C    -0.05802   3.60043   0.73276
N     0.57352  -0.27729  -1.87579
O     0.24330  -1.54732  -1.94937
C    -1.20607  -1.91941  -0.86289
C    -1.39483  -0.95037   0.15939
O    -0.99845  -1.25564   1.39669
C    -1.18743  -0.28747   2.43895
O    -2.23971   0.08033   0.08809
C    -3.00147   0.31088  -1.10412
H     3.70685  -1.84185   1.40571
H     3.25782  -3.28704   0.46087
H     2.21417  -2.72613   1.80021
H     1.74147  -2.03667  -0.80816
H    -1.15314   3.56473   0.63639
H     0.22073   3.95242   1.73305
H     0.35245   4.27468  -0.03289
H     0.03342   0.33958  -2.49322
H    -0.85289  -2.88611  -0.50518
H    -1.94656  -1.94989  -1.66033
H    -0.75756   0.67948   2.14980
H    -2.25720  -0.17177   2.66570
H    -0.65912  -0.68756   3.31171
H    -2.35316   0.39742  -1.98515
H    -3.52558   1.25954  -0.94143
H    -3.73135  -0.50087  -1.24697
