45
Generated by autodE on: 2022-06-04. E = -1933.256249 Ha
C     3.42446   2.72927  -1.71333
N     3.03951   1.44346  -1.16309
C     1.90083   1.29558  -0.46653
O     1.16180   2.25583  -0.21422
C     1.59243  -0.09227   0.10998
C     2.17590  -1.35319  -0.57906
C     1.35375  -2.00093  -1.69212
C     1.04153  -1.15476  -2.92751
C     0.13815   0.07651  -2.75882
C    -1.10877  -0.08961  -1.90222
Cl   -2.13761   1.42025  -2.13241
Cl   -2.09468  -1.50307  -2.53933
C    -0.96376  -0.26863  -0.42131
C     0.12436  -0.23037   0.39432
C    -0.40524  -0.46609   1.80749
C     0.22930  -1.81086   2.30298
C    -0.45790  -3.07152   1.87464
O     1.24803  -1.80129   2.95916
C    -0.01315   0.68099   2.76841
O     1.14931   1.07425   2.86770
N    -1.02680   1.18954   3.47824
C    -0.82653   2.26448   4.42961
N    -1.85026  -0.59821   1.69193
C    -2.13349  -0.48378   0.44014
H     2.69751   3.07963  -2.46460
H     4.40675   2.63094  -2.19135
H     3.48812   3.49196  -0.92260
H     3.58362   0.62662  -1.41238
H     2.08390  -0.02993   1.09202
H     3.19401  -1.13691  -0.93937
H     2.30999  -2.10597   0.21263
H     0.41624  -2.39721  -1.27092
H     1.91449  -2.88659  -2.03233
H     0.57197  -1.81487  -3.67282
H     1.98231  -0.79773  -3.37811
H     0.67982   0.93678  -2.34882
H    -0.20142   0.39201  -3.75504
H     0.19855  -3.92805   2.07376
H    -1.39458  -3.18260   2.44286
H    -0.72710  -3.03253   0.80851
H    -1.94834   0.78982   3.32913
H    -1.79672   2.54338   4.85772
H    -0.15310   1.95640   5.24527
H    -0.38511   3.14697   3.94090
H    -3.16195  -0.54348   0.07297
