18
Generated by autodE on: 2022-06-04. E = -493.596206 Ha
C    -2.17498   1.88664   0.60530
N    -1.41604   1.05713   0.32829
C    -0.49558   0.12481   0.02076
C    -0.95224  -1.14041  -0.49321
C    -2.44341  -1.33901  -0.65222
O    -0.16253  -2.05415  -0.80299
C     0.90050   0.55076   0.26434
O     1.15359   1.68140   0.71772
N     1.84257  -0.36700  -0.04076
C     3.25994  -0.14070   0.12582
H    -2.89673   2.65500   0.86004
H    -2.86628  -0.59325  -1.34480
H    -2.63146  -2.34707  -1.04320
H    -2.96126  -1.21787   0.31299
H     1.48980  -1.25507  -0.40436
H     3.79490  -0.22514  -0.83451
H     3.41898   0.86817   0.52539
H     3.70250  -0.86818   0.82616
