8
Generated by autodE on: 2022-10-20. E = -291.177967 Ha
C    -2.17117   0.57913  -0.58714
O    -1.37386  -0.54734  -0.15755
C    -0.10847  -0.29553   0.04276
C     1.05640  -0.06177   0.23903
F     2.30873   0.18605   0.43593
H    -3.19415   0.20156  -0.70248
H    -1.79637   0.96243  -1.54828
H    -2.14211   1.37408   0.17349
