22
Generated by autodE on: 2022-10-26. E = -605.061458 Ha
C     1.98338  -2.14314  -1.09988
N     1.04188  -1.15092  -0.53048
N    -0.17444  -1.52423  -0.51848
C    -1.17340  -0.59712  -0.14709
C    -1.48559   0.48018  -0.99343
C    -2.52092   1.34603  -0.64419
C    -3.24162   1.14597   0.53808
C    -2.94129   0.05615   1.36238
C    -1.92065  -0.82954   1.01559
C     1.59678   0.02489  -0.07309
C     2.97584   0.25474  -0.28247
N     4.10934   0.48394  -0.43942
C     0.90371   0.99909   0.68471
N     0.47105   1.86579   1.33578
H     1.39524  -3.02543  -1.36294
H     2.74825  -2.38592  -0.35277
H     2.45225  -1.71189  -1.99327
H    -0.91173   0.63480  -1.90908
H    -2.76248   2.18657  -1.29852
H    -4.04479   1.83352   0.81174
H    -3.50858  -0.10917   2.28106
H    -1.67679  -1.68536   1.64716
