22
Generated by autodE on: 2022-10-20. E = -605.061439 Ha
C    -2.45666  -1.35669  -1.35262
N    -1.30336  -0.65888  -0.73867
N    -0.21284  -0.76841  -1.38589
C     0.99065  -0.31294  -0.80833
C     1.74029   0.65532  -1.49147
C     2.96454   1.07226  -0.96860
C     3.46143   0.50099   0.20780
C     2.72966  -0.49657   0.86133
C     1.49442  -0.90670   0.36273
C    -1.55802   0.03772   0.42405
C    -0.66605   0.97331   0.99872
N    -0.03633   1.78815   1.54783
C    -2.82518  -0.09164   1.03557
N    -3.85794  -0.17684   1.57270
H    -2.80762  -2.13321  -0.66109
H    -2.09875  -1.80620  -2.28189
H    -3.25771  -0.63279  -1.54440
H     1.34355   1.08655  -2.41199
H     3.53697   1.84435  -1.48749
H     4.42331   0.82606   0.61005
H     3.12113  -0.95730   1.77096
H     0.91711  -1.67942   0.87386
