30
Generated by autodE on: 2022-10-20. E = -896.223807 Ha. Imaginary frequency = -373.6 cm-1
C    -0.67989   3.53081  -0.75761
O    -0.73011   2.18818  -0.23497
C     0.42474   1.55938  -0.23080
C     1.63396   1.33000  -0.35796
F     2.88865   1.62608  -0.61863
C     1.86259  -0.76909   0.41172
C     2.99610  -1.31243  -0.25739
N     3.94774  -1.70520  -0.80042
C     2.05836  -0.32790   1.75955
N     2.26597   0.01497   2.85188
N     0.59276  -1.14574   0.02956
C     0.43738  -1.96801  -1.17813
N    -0.32592  -0.38389   0.54413
C    -1.68187  -0.55484   0.18042
C    -2.16162  -0.38732  -1.13073
C    -3.52854  -0.49442  -1.38575
C    -4.42385  -0.77002  -0.34643
C    -3.94924  -0.91823   0.96081
C    -2.58568  -0.79285   1.22835
H    -1.70237   3.92336  -0.69407
H     0.00286   4.14800  -0.15338
H    -0.34378   3.51641  -1.80578
H    -0.55826  -2.42190  -1.17411
H     0.56410  -1.34059  -2.07270
H     1.19524  -2.75846  -1.16211
H    -1.47155  -0.14263  -1.93789
H    -3.89712  -0.35639  -2.40463
H    -5.49268  -0.85647  -0.55430
H    -4.64428  -1.12201   1.77833
H    -2.20094  -0.88665   2.24534
