22
Generated by autodE on: 2022-06-16. E = -421.772599 Ha
C     2.81360  -0.21316  -0.80844
C     1.34901  -0.17640  -0.53620
N     0.54038   0.58187  -1.18329
C    -0.82013   0.31007  -0.68472
C    -1.62555   1.52984  -0.61275
N    -2.26822   2.49305  -0.52984
C    -0.66681  -0.40171   0.68200
C    -1.82122  -1.31751   1.05191
C     0.70541  -1.07743   0.50269
C     1.49460  -1.28167   1.79105
H     3.07947   0.43977  -1.65029
H     3.37447   0.10423   0.08599
H     3.13133  -1.24565  -1.03003
H    -1.33017  -0.35861  -1.40202
H    -0.55278   0.38019   1.45227
H    -1.63996  -1.80302   2.02346
H    -2.76476  -0.75414   1.13013
H    -1.95520  -2.10660   0.29431
H     0.56144  -2.06064   0.01233
H     2.44748  -1.79952   1.60345
H     0.91692  -1.89423   2.50064
H     1.71530  -0.31701   2.27587
