10
Generated by autodE on: 2022-06-16. E = -264.365748 Ha
C    -2.95430   0.38963   0.16082
C    -1.58520  -0.04707   0.01211
N    -0.48046  -0.38622  -0.13912
C     0.78735  -0.79398  -0.31252
C     1.84931   0.05384   0.00303
N     2.75966   0.75181   0.26152
H    -3.60216  -0.50213   0.16201
H    -3.26045   1.05478  -0.66254
H    -3.08257   0.90575   1.12563
H     0.94706  -1.80114  -0.69868
