22
Generated by autodE on: 2022-06-16. E = -421.657283 Ha. Imaginary frequency = -404.0 cm-1
C     2.49608  -0.78159  -1.44465
C     1.17179  -0.35015  -0.99346
N     0.27627   0.40504  -1.27636
C    -0.93732   0.84083  -0.91236
C    -1.04764   2.00854  -0.13427
N    -1.15981   2.94895   0.55590
C    -0.91716  -0.99332   0.93274
C    -1.89438  -1.92821   0.27787
C     0.43428  -1.23086   0.97411
C     1.34941  -0.46919   1.90271
H     2.88798  -0.14208  -2.25057
H     3.19500  -0.78349  -0.59499
H     2.41881  -1.82115  -1.80221
H    -1.80038   0.50479  -1.49112
H    -1.32840  -0.19952   1.56397
H    -2.24716  -2.70062   0.98763
H    -2.78926  -1.40374  -0.09013
H    -1.43416  -2.45656  -0.57306
H     0.79843  -2.19751   0.60431
H     2.37736  -0.39103   1.51577
H     1.41997  -0.96631   2.88717
H     0.97427   0.55266   2.07333
