32
Generated by autodE on: 2022-07-27. E = -893.549065 Ha
C     0.66243   2.44186  -2.60488
N     0.89740   1.49624  -1.53067
C    -0.05457   1.21628  -0.63127
O    -1.15661   1.77026  -0.60584
C     0.30834   0.19438   0.41912
N    -0.59695  -0.68330   0.80343
C    -1.81178  -1.05973   0.25055
C    -2.76190  -1.61161   1.12903
N    -3.54692  -2.07739   1.86126
C    -2.13544  -1.01985  -1.15889
O    -3.26150  -1.20739  -1.60724
O    -1.06236  -0.81886  -1.94514
C    -1.30107  -0.66468  -3.34693
C     1.59210   0.23495   1.11686
C     2.28683   1.45503   1.26891
C     3.48885   1.49620   1.97140
C     4.02323   0.32852   2.52773
C     3.34789  -0.88700   2.37632
C     2.14551  -0.93833   1.67388
H     1.51320   2.41107  -3.29569
H    -0.25714   2.18487  -3.15260
H     0.55425   3.46734  -2.21702
H     1.77962   0.99504  -1.49095
H    -0.37220  -1.17388   1.67511
H    -1.98206   0.17894  -3.53061
H    -1.73409  -1.58204  -3.77154
H    -0.32317  -0.46548  -3.80016
H     1.87062   2.37651   0.86041
H     4.00957   2.44854   2.09162
H     4.96875   0.36512   3.07320
H     3.76813  -1.80426   2.79414
H     1.64858  -1.89976   1.52724
