61
Generated by autodE on: 2022-06-12. E = -1660.199217 Ha. Imaginary frequency = -307.9 cm-1
C     1.76264   1.32424  -3.32500
N     1.89154   0.48008  -2.15219
C     0.81420  -0.08483  -1.58676
O    -0.31178   0.05446  -2.07881
C     1.02866  -0.91135  -0.34001
C     2.33087  -0.89899   0.37140
C     3.01680   0.31283   0.60070
C     4.19447   0.34038   1.34771
C     4.72331  -0.83727   1.88121
C     4.06341  -2.04805   1.65173
C     2.88595  -2.08061   0.90543
N     0.32506  -2.08461  -0.25202
C    -1.01339  -2.22260  -0.54297
C    -1.64501  -3.35413   0.06613
N    -2.19988  -4.25244   0.55659
C    -1.54260  -2.05660  -1.94941
O    -2.69413  -1.77349  -2.19883
O    -0.64945  -2.45384  -2.85462
C    -1.02893  -2.30484  -4.23125
C    -1.63706  -0.48993   0.78357
C    -2.87910  -0.07674   0.10479
O    -3.02472   0.77285  -0.75430
O    -3.92009  -0.79711   0.57268
C    -5.18869  -0.56449  -0.04641
C    -1.80169  -1.29773   2.10870
C    -2.09245  -0.28461   3.21998
C    -0.93368   0.35432   3.41788
C     0.03421  -0.27198   2.40155
O    -0.43031  -1.62491   2.36994
C    -0.42261   0.25971   0.99762
C    -0.10724   1.67844   0.71501
C     0.77226   2.35892   1.59179
C     1.14096   3.68704   1.37548
C     0.64872   4.38558   0.27099
C    -0.22699   3.73498  -0.60363
C    -0.60249   2.40924  -0.38645
H     1.32676   0.76708  -4.16895
H     1.11611   2.19028  -3.11517
H     2.75875   1.68301  -3.60979
H     2.81175   0.32880  -1.75595
H     2.62004   1.24876   0.21632
H     4.69589   1.29585   1.51697
H     5.64576  -0.81412   2.46546
H     4.47160  -2.98047   2.04775
H     2.41732  -3.04909   0.72467
H     0.56729  -2.59715   0.59474
H    -1.22521  -1.24589  -4.45163
H    -1.92420  -2.90296  -4.45239
H    -0.17608  -2.66342  -4.81858
H    -5.49800   0.48355   0.07732
H    -5.13890  -0.80664  -1.11786
H    -5.89850  -1.22982   0.45918
H    -2.43547  -2.18409   2.07123
H    -3.06873  -0.11703   3.67303
H    -0.70350   1.18787   4.07983
H     1.10414  -0.22771   2.61845
H     1.19580   1.85142   2.45607
H     1.82412   4.17309   2.07604
H     0.94045   5.42370   0.09566
H    -0.62780   4.26546  -1.47110
H    -1.28308   1.92670  -1.07555
