24
Generated by autodE on: 2022-12-31. E = -705.349428 Ha
C     4.53294   0.16740  -0.01072
C     3.31460  -0.51468   0.53640
O     3.34502  -1.45650   1.32905
C     2.02157  -0.02145   0.08794
N     0.83967  -0.50428   0.45368
C    -0.18554   0.17363  -0.13995
C    -1.59560  -0.11399   0.04282
C    -2.02700  -1.17259   0.87103
C    -3.38571  -1.43394   1.03677
C    -4.34388  -0.65148   0.38207
C    -3.92657   0.39810  -0.44297
C    -2.56953   0.66889  -0.61460
C     0.43250   1.18082  -0.95233
O     0.02654   2.06125  -1.69089
O     1.82838   0.99548  -0.75973
H     4.56279   0.06174  -1.10766
H     5.43224  -0.27914   0.43146
H     4.49865   1.24650   0.20941
H     0.75887  -1.28737   1.10490
H    -1.30016  -1.80022   1.39101
H    -3.69880  -2.25726   1.68297
H    -5.40794  -0.85957   0.51437
H    -4.66563   1.01479  -0.95989
H    -2.25102   1.48806  -1.25853
