41
Generated by autodE on: 2022-12-31. E = -977.404614 Ha
C    -3.76554   1.53912   0.17504
N    -2.37864   1.11120   0.17393
C    -1.38511   1.95485  -0.12008
O    -1.55461   3.14672  -0.39064
C     0.05683   1.38098  -0.14264
C     0.90289   2.38527   0.65517
O     1.77366   3.08286   0.18878
O     0.54093   2.39182   1.93681
C     1.23055   3.30711   2.80457
C     0.15821   0.03133   0.39886
C     0.21562  -1.17881   0.42612
C     0.34217  -2.53461  -0.15014
O    -0.53409  -3.38476   0.55930
C    -0.64913  -4.71622   0.06874
O     1.67207  -2.99908  -0.08941
C     2.22167  -3.11253   1.21662
C    -0.01208  -2.39989  -1.64820
C     0.67154  -1.24121  -2.40325
C    -0.04778   0.13741  -2.44852
C     0.54495   1.29423  -1.62094
H    -4.39637   0.69372   0.47429
H    -4.07720   1.88112  -0.82448
H    -3.91881   2.36792   0.88298
H    -2.15355   0.13727   0.35553
H     0.79808   3.16090   3.80069
H     1.07299   4.34146   2.46723
H     2.30644   3.08253   2.81777
H    -1.25416  -4.76484  -0.85168
H    -1.15413  -5.29627   0.85348
H     0.33842  -5.16412  -0.12484
H     3.25861  -3.45388   1.09737
H     2.22081  -2.13824   1.73633
H     1.66654  -3.84118   1.82871
H    -1.10703  -2.30742  -1.71773
H     0.26930  -3.35316  -2.12015
H     0.78280  -1.58092  -3.44400
H     1.69997  -1.12027  -2.02511
H    -0.02736   0.47989  -3.49416
H    -1.11570   0.01059  -2.20558
H     1.64200   1.21823  -1.60329
H     0.29922   2.25880  -2.08878
