40
Generated by autodE on: 2022-06-18. E = -807.797457 Ha
C    -2.32916   2.80256   0.54571
C    -2.86061   1.77452   1.50405
C    -3.71467   2.32713   2.61045
C    -2.61100   0.44500   1.41856
C    -1.78493  -0.21524   0.42319
C    -1.53205  -1.53818   0.41818
C    -0.62281  -2.29065  -0.53540
C    -1.36542  -3.49588  -1.13258
C     0.58708  -2.72990   0.27447
N     1.68972  -2.11600   0.07915
C     1.45067  -1.06417  -0.94093
C     2.53894  -1.13576  -1.92980
N     3.38845  -1.20252  -2.71746
C     1.44592   0.33606  -0.31169
C     1.44922   1.46120  -1.14855
C     1.35789   2.74509  -0.60814
C     1.26152   2.91794   0.77689
C     1.26063   1.79918   1.61301
C     1.35621   0.51291   1.07228
C     0.08360  -1.43091  -1.60469
H    -1.72395   3.55108   1.08576
H    -3.16419   3.35747   0.08269
H    -1.70826   2.38355  -0.25531
H    -4.08240   1.54009   3.28505
H    -4.58447   2.87062   2.19985
H    -3.14925   3.06385   3.20893
H    -3.05373  -0.20702   2.18094
H    -1.33487   0.41630  -0.34467
H    -1.98207  -2.16463   1.19823
H    -2.18501  -3.15085  -1.78154
H    -1.79930  -4.12051  -0.33633
H    -0.68310  -4.11984  -1.73065
H     0.51453  -3.52618   1.02650
H     1.51620   1.33266  -2.23176
H     1.35788   3.61301  -1.27151
H     1.18385   3.92165   1.20074
H     1.18122   1.92340   2.69544
H     1.34356  -0.35491   1.73059
H    -0.47581  -0.54511  -1.92325
H     0.27071  -2.05015  -2.49201
