17
Generated by autodE on: 2022-06-18. E = -456.183608 Ha
C     2.92964   1.44008  -0.09649
N     2.12011   0.56838   0.03905
C     1.16212  -0.32221   0.03097
C     1.54579  -1.69100   0.03272
N     1.84062  -2.81953   0.03505
C    -0.25361   0.08220   0.01121
C    -1.26950  -0.89242  -0.00025
C    -2.61130  -0.51168  -0.02715
C    -2.96380   0.84182  -0.04446
C    -1.95798   1.81454  -0.03343
C    -0.61386   1.44310  -0.00368
H     3.48228   2.02276   0.65268
H    -1.00685  -1.95244   0.01060
H    -3.38713  -1.28088  -0.03535
H    -4.01514   1.13701  -0.06489
H    -2.22122   2.87482  -0.04564
H     0.15990   2.21348   0.00859
