40
Generated by autodE on: 2022-06-18. E = -807.698222 Ha. Imaginary frequency = -407.6 cm-1
C    -4.26800  -2.75571   2.83342
C    -3.96413  -1.28538   2.76352
C    -4.70344  -0.44057   3.76332
C    -3.09780  -0.72361   1.88413
C    -2.31304  -1.40020   0.86886
C    -1.46810  -0.75191   0.03097
C    -0.63983  -1.37050  -1.01920
C    -0.80468  -2.85178  -1.29885
C     1.08493  -1.63064   0.37706
N     1.96152  -0.91473  -0.04078
C     2.20785   0.00023  -0.99377
C     2.98657  -0.43136  -2.10082
N     3.59927  -0.77591  -3.03297
C     2.03186   1.43126  -0.70327
C     2.45951   2.40578  -1.62530
C     2.23435   3.76029  -1.37780
C     1.58795   4.16971  -0.20668
C     1.16790   3.20637   0.71762
C     1.38630   1.85001   0.47679
C    -0.07596  -0.54657  -1.98026
H    -5.34735  -2.93220   2.67861
H    -4.03620  -3.14804   3.83961
H    -3.71614  -3.35574   2.09827
H    -5.79605  -0.55156   3.64043
H    -4.47888  -0.76555   4.79541
H    -4.45106   0.62637   3.67327
H    -2.96306   0.36396   1.93493
H    -2.41371  -2.48560   0.78253
H    -1.36896   0.33596   0.12527
H    -0.04018  -3.20133  -2.00775
H    -1.79699  -3.04638  -1.74224
H    -0.73453  -3.46570  -0.38834
H     0.97569  -2.30790   1.23097
H     2.96445   2.09907  -2.54390
H     2.57062   4.50187  -2.10633
H     1.41556   5.23087  -0.01397
H     0.66546   3.51322   1.63809
H     1.05282   1.11154   1.20760
H    -0.22881   0.53271  -1.95112
H     0.35404  -0.96584  -2.89206
