59
Generated by autodE on: 2022-06-08. E = -1451.756062 Ha
C     3.72659   3.21210  -1.46969
N     2.67123   2.50511  -0.77233
C     2.84974   1.96096   0.43372
O     3.85203   2.10553   1.13493
C     1.68809   1.04055   0.91412
C     1.68486   1.16121   2.39934
N     1.62750   1.29002   3.55079
C     1.95440  -0.44022   0.49655
C     2.86010  -0.58436  -0.76931
C     3.06085  -2.06798  -1.02069
C     1.90038  -2.49969  -1.52632
C     0.99738  -1.27204  -1.54827
O     1.93120  -0.22469  -1.80685
C     0.59222  -0.98622  -0.02805
C     0.20711  -2.33350   0.60320
O     0.87421  -2.86520   1.49704
N    -0.86657  -2.94023   0.07203
C    -1.32768  -4.23058   0.54749
C    -0.46413   0.19818   0.15298
C    -1.31093   0.35868  -1.12220
C    -0.93114   1.24758  -2.13587
C    -1.64401   1.32052  -3.33638
C    -2.75358   0.50009  -3.55008
C    -3.15331  -0.38121  -2.54136
C    -2.44475  -0.44246  -1.33948
C    -1.36917   0.07338   1.40507
C    -2.60000   0.75394   1.44129
C    -3.38720   0.77882   2.59387
C    -2.95933   0.12754   3.75373
C    -1.72924  -0.53146   3.74424
C    -0.94309  -0.54993   2.58822
N     0.42029   1.37850   0.31312
C    -0.18324   2.63185   0.73494
H     4.28207   3.84379  -0.76362
H     4.43701   2.51301  -1.94330
H     3.28490   3.84725  -2.24823
H     1.85172   2.18916  -1.28451
H     2.34324  -1.01810   1.33859
H     3.75722   0.04098  -0.79083
H     3.95201  -2.63500  -0.75277
H     1.59463  -3.51412  -1.77843
H     0.16969  -1.26597  -2.26081
H    -1.36699  -2.49405  -0.68902
H    -2.23344  -4.50703  -0.00581
H    -0.56320  -5.00881   0.39410
H    -1.56378  -4.19130   1.62239
H    -0.06635   1.89078  -1.98896
H    -1.32409   2.02401  -4.10864
H    -3.30840   0.55276  -4.48962
H    -4.02792  -1.02028  -2.68302
H    -2.80237  -1.11015  -0.55562
H    -2.95406   1.28316   0.55750
H    -4.33904   1.31519   2.58267
H    -3.57482   0.14085   4.65627
H    -1.36678  -1.03509   4.64347
H     0.01271  -1.06271   2.63725
H    -0.50745   2.62721   1.79137
H     0.54028   3.44787   0.60071
H    -1.05749   2.85217   0.10898
