39
Generated by autodE on: 2022-06-08. E = -936.052820 Ha
C     3.77908  -1.63224   1.94895
N     3.08646  -1.57226   0.67913
C     2.15536  -0.60942   0.42715
O     1.73292   0.12564   1.34314
C     1.69275  -0.49231  -0.94942
C     2.32338  -1.14746  -2.01067
N     2.86848  -1.71380  -2.88404
N     0.62044   0.38050  -1.22559
C     0.80619   1.32495  -2.33839
C    -0.45511   0.39859  -0.45025
C    -0.84957  -0.78234   0.33939
C    -0.77477  -2.07798  -0.20911
C    -1.21838  -3.17517   0.52389
C    -1.72296  -3.00271   1.82020
C    -1.79787  -1.72160   2.37178
C    -1.37140  -0.61585   1.63352
C    -1.28418   1.61199  -0.35415
C    -2.68664   1.52225  -0.42521
C    -3.46821   2.67093  -0.30861
C    -2.86264   3.91390  -0.09202
C    -1.47010   4.00600   0.00714
C    -0.68196   2.86361  -0.12641
H     3.05940  -1.61788   2.78011
H     4.35215  -2.56709   1.99914
H     4.47700  -0.78800   2.09331
H     3.47926  -2.08643  -0.10206
H     1.18933   0.75657  -3.19713
H     1.54209   2.09325  -2.06717
H    -0.14761   1.78495  -2.61322
H    -0.38287  -2.22021  -1.21693
H    -1.17321  -4.17333   0.08263
H    -2.06073  -3.86821   2.39485
H    -2.19062  -1.57978   3.38101
H    -1.42679   0.38416   2.06579
H    -3.15714   0.55101  -0.58755
H    -4.55531   2.59639  -0.38256
H    -3.47784   4.81102   0.00809
H    -0.99593   4.97159   0.19613
H     0.40239   2.92883  -0.02496
