39
Generated by autodE on: 2022-07-27. E = -936.049984 Ha
C     4.07394   2.78713   1.99149
N     3.46375   1.63077   1.37465
C     2.38349   1.70332   0.54586
O     1.91676   2.80105   0.16891
C     1.79407   0.43860   0.13713
C     2.03058  -0.74997   0.83389
N     2.24610  -1.74201   1.42522
N     0.74875   0.43682  -0.82596
C     1.07570   1.02992  -2.13346
C    -0.41644  -0.14269  -0.57834
C    -1.30492  -0.59341  -1.66130
C    -0.80481  -1.29605  -2.77494
C    -1.67472  -1.75543  -3.76258
C    -3.04841  -1.51109  -3.66017
C    -3.55431  -0.81850  -2.55466
C    -2.69266  -0.37485  -1.55312
C    -0.85432  -0.35623   0.81535
C    -0.76122   0.69322   1.75153
C    -1.23793   0.51481   3.04608
C    -1.79262  -0.71432   3.43181
C    -1.88229  -1.75891   2.50981
C    -1.42362  -1.57958   1.20202
H     3.59066   3.69114   1.60291
H     5.15063   2.84222   1.76242
H     3.95877   2.77209   3.08853
H     3.80371   0.71411   1.64501
H     1.71440   0.34619  -2.70780
H     1.62123   1.95845  -1.93598
H     0.15973   1.25590  -2.68870
H     0.26182  -1.50866  -2.85300
H    -1.27861  -2.31224  -4.61452
H    -3.72631  -1.86792  -4.43888
H    -4.62637  -0.62829  -2.46997
H    -3.08824   0.15829  -0.68720
H    -0.32907   1.64859   1.44900
H    -1.18110   1.33832   3.76136
H    -2.15839  -0.85127   4.45200
H    -2.31344  -2.71779   2.80552
H    -1.49661  -2.39332   0.47843
