20
Generated by autodE on: 2022-06-08. E = -515.641442 Ha
C    -3.70114  -0.74912  -0.51046
N    -2.38909  -0.67873   0.10004
C    -1.39501   0.05324  -0.44110
O    -1.55140   0.73036  -1.47069
C    -0.08549   0.02008   0.23611
C     0.49667  -0.88830   1.03335
C     1.94961  -0.39089   1.19749
C     2.64372  -0.57425  -0.17394
C     2.06883   0.33023  -0.97165
C     1.03222   1.04576  -0.07610
O     1.72771   1.03318   1.18459
H    -4.16457   0.24831  -0.57903
H    -4.34371  -1.39420   0.10084
H    -3.64853  -1.16528  -1.52944
H    -2.21235  -1.19132   0.95701
H     0.10298  -1.82824   1.41971
H     2.49450  -0.72003   2.08874
H     3.38825  -1.33640  -0.40112
H     2.21305   0.51836  -2.03494
H     0.71092   2.04984  -0.37025
