41
Generated by autodE on: 2022-05-30. E = -1160.827455 Ha
C    -5.11498  -1.91870   0.39121
N    -4.03439  -0.98258   0.61913
C    -2.75998  -1.39287   0.66828
O    -2.41746  -2.58369   0.57220
C    -1.70439  -0.36326   0.86680
C    -1.60701   0.97536   0.64803
C    -2.59679   1.96358   0.17419
C    -2.05646   3.26675  -0.33799
O    -3.80789   1.74815   0.21740
C    -0.11066   1.27950   0.82834
O     0.24545   0.33922   1.83650
C    -0.28149  -0.81693   1.18999
C     0.44748  -0.82615  -0.18812
C     0.55853   0.70421  -0.45656
C     2.08740   0.83977  -0.58436
C     2.63140   2.19336  -0.56324
N     3.03113   3.27988  -0.53330
O     2.39799   0.23268  -1.91677
C     2.30559  -1.10822  -1.69153
O     2.45907  -1.93234  -2.55442
C     1.93969  -1.27111  -0.19841
C     2.26425  -2.61725   0.39368
N     2.62624  -0.08324   0.37291
C     4.08470  -0.15890   0.45224
H    -5.07689  -2.74280   1.11988
H    -5.06448  -2.36188  -0.61773
H    -6.07156  -1.39284   0.49850
H    -4.20323   0.02885   0.59361
H    -2.86741   3.86640  -0.76966
H    -1.26537   3.09590  -1.08513
H    -1.59267   3.81932   0.49633
H     0.17176   2.29953   1.10722
H    -0.17845  -1.71885   1.79927
H    -0.12704  -1.38587  -0.93440
H     0.07797   1.06371  -1.37175
H     3.32243  -2.87427   0.24612
H     1.65276  -3.38547  -0.10088
H     2.04095  -2.63060   1.46950
H     4.47791   0.81879   0.76337
H     4.57047  -0.44520  -0.49877
H     4.36268  -0.89135   1.22039
