41
Generated by autodE on: 2022-05-30. E = -1160.758405 Ha. Imaginary frequency = -322.0 cm-1
C    -5.31065  -1.68468   0.86321
N    -4.13920  -0.84026   0.96226
C    -2.91109  -1.32976   0.74088
O    -2.68608  -2.52575   0.48715
C    -1.76487  -0.38741   0.81701
C    -1.60887   0.96024   0.73645
C    -2.58325   2.05303   0.58553
C    -2.04047   3.37882   0.13464
O    -3.78372   1.90430   0.82352
C    -0.07170   1.15452   0.64295
O     0.36698   0.08210   1.48432
C    -0.33009  -0.95729   0.78923
C     0.17074  -0.74639  -0.64656
C     0.35053   0.63317  -0.74775
C     2.47749   0.75136  -0.93918
C     2.84090   2.12522  -0.98203
N     3.04279   3.27122  -1.00420
O     2.49524   0.04141  -2.12466
C     2.43994  -1.31442  -1.78295
O     2.32288  -2.17973  -2.62946
C     2.58102  -1.35519  -0.34507
C     2.72433  -2.56793   0.49126
N     2.89860  -0.09764   0.05432
C     3.31387   0.29372   1.39329
H    -5.22153  -2.55827   1.52748
H    -5.45627  -2.06017  -0.16371
H    -6.19459  -1.10485   1.15578
H    -4.23102   0.17702   1.06184
H    -2.86406   4.07830  -0.05548
H    -1.42488   3.25675  -0.77122
H    -1.37972   3.78973   0.91604
H     0.33201   2.11885   0.96606
H    -0.19140  -1.93993   1.24901
H    -0.07446  -1.43162  -1.45578
H     0.18130   1.22146  -1.64963
H     3.78648  -2.78778   0.69375
H     2.29012  -3.42497  -0.04068
H     2.21312  -2.44777   1.45797
H     3.45248   1.38108   1.41837
H     4.26890  -0.19627   1.62675
H     2.55173   0.00781   2.12557
