33
Generated by autodE on: 2022-06-17. E = -802.472923 Ha
C     3.48185   0.50086   1.67150
N     2.72378  -0.10991   0.59958
C     1.67767   0.50037   0.02461
O     1.37799   1.68240   0.23374
C     0.91855  -0.36131  -0.99235
C    -0.55790   0.08626  -1.22514
C    -0.79746   1.57632  -1.16605
O    -0.48171   2.30740  -2.09806
C    -1.51395   2.12542   0.00782
C    -2.18702   1.34744   0.87498
C    -2.24314  -0.12263   0.75401
O    -2.98559  -0.77100   1.48506
C    -1.38022  -0.81557  -0.27433
C    -0.32427  -1.80906   0.35420
C     0.04809  -1.47301   1.79918
N     0.83186  -1.75488  -0.56602
C     0.68988  -2.67444  -1.69440
H     2.94089   0.45007   2.63272
H     4.44243  -0.01872   1.78256
H     3.67359   1.55739   1.44149
H     2.74470  -1.12049   0.48561
H     1.49110  -0.28885  -1.92839
H    -0.79108  -0.18988  -2.26207
H    -1.51557   3.21506   0.09767
H    -2.75716   1.77534   1.70398
H    -2.08433  -1.41293  -0.87151
H    -0.72076  -2.83196   0.33532
H     0.27644  -0.40660   1.94338
H    -0.78897  -1.71876   2.46649
H     0.92070  -2.06319   2.11270
H     0.65845  -3.70942  -1.32507
H     1.55876  -2.57686  -2.36096
H    -0.22370  -2.50144  -2.29707
