21
Generated by autodE on: 2022-06-17. E = -420.763924 Ha
C    -3.34126  -0.35227   0.33922
C    -1.86246  -0.18351   0.36111
N    -1.14007  -0.00507  -0.72808
C    -1.85307   0.03379  -2.02135
C     0.23465   0.14907  -0.81066
C     1.11632   0.11517   0.30355
O     0.77914  -0.08242   1.50328
N     2.45163   0.34525   0.00932
C     3.47521   0.02335   0.97978
H    -3.65892  -1.23746  -0.24191
H    -3.70791  -0.47614   1.36708
H    -3.86208   0.51602  -0.10369
H    -1.29825  -0.20522   1.29079
H    -2.58310   0.85349  -2.01814
H    -2.38384  -0.91373  -2.18096
H    -1.13347   0.18849  -2.82977
H     0.61911   0.31235  -1.81336
H     2.71576   0.25912  -0.96668
H     4.45084   0.35315   0.59723
H     3.54168  -1.05875   1.20506
H     3.28686   0.54453   1.92951
