21
Generated by autodE on: 2022-07-27. E = -420.760402 Ha
C    -1.53948  -0.73232   1.56837
C    -1.19391  -1.57204   0.40496
N    -0.79275  -1.08465  -0.75417
C    -0.77981  -1.98628  -1.92211
C    -0.39836   0.21741  -1.01397
C     0.47327   1.04098  -0.23119
O     0.73380   2.22071  -0.58586
N     1.08853   0.52813   0.89185
C     2.17233   1.25413   1.52169
H    -1.92921   0.24141   1.21709
H    -2.29238  -1.24884   2.18185
H    -0.67878  -0.49292   2.21792
H    -1.34163  -2.65245   0.43988
H    -1.29016  -2.92530  -1.67819
H     0.25772  -2.17721  -2.22755
H    -1.30744  -1.49062  -2.74824
H    -0.56438   0.54711  -2.03873
H     1.09177  -0.47912   1.01073
H     1.84714   2.26674   1.80158
H     2.47469   0.72322   2.43472
H     3.05959   1.35954   0.86972
