33
Generated by autodE on: 2022-06-17. E = -802.411248 Ha. Imaginary frequency = -165.7 cm-1
C     3.46285   0.67681   1.78100
N     2.70041  -0.12507   0.84491
C     1.94304   0.44965  -0.11892
O     2.01716   1.66705  -0.34976
C     1.11077  -0.43725  -0.96994
C    -1.08488   0.18888  -1.37329
C    -0.93103   1.60688  -1.00826
O    -0.50932   2.45350  -1.79800
C    -1.37017   1.99282   0.35448
C    -2.10368   1.15027   1.10358
C    -2.46377  -0.21930   0.63720
O    -3.22713  -0.91515   1.33210
C    -1.88708  -0.65942  -0.61080
C     0.07774  -2.02557   0.51309
C     0.09227  -1.26507   1.78616
N     0.72733  -1.71606  -0.60592
C     0.60667  -2.65783  -1.73345
H     2.80713   1.34753   2.36111
H     3.98630   0.00793   2.47520
H     4.20751   1.29965   1.26116
H     2.64728  -1.12400   1.00055
H     1.36902  -0.34402  -2.02494
H    -0.90844  -0.02920  -2.42727
H    -1.12191   3.00582   0.68114
H    -2.48188   1.43278   2.08979
H    -2.22713  -1.61876  -1.00516
H    -0.28598  -3.05376   0.55260
H     0.15753  -0.17992   1.65346
H    -0.81879  -1.50861   2.34995
H     0.94946  -1.58501   2.40687
H     0.27640  -3.63513  -1.36718
H     1.58162  -2.75390  -2.22682
H    -0.12660  -2.26802  -2.45446
