56
Generated by autodE on: 2022-06-04. E = -1229.815620 Ha
C     2.79334   1.41825  -1.56346
C     1.38310   0.91758  -1.74572
O     0.75322   1.24582  -2.73849
C     0.82795  -0.11130  -0.74335
C     1.63152  -0.10715   0.56272
C     2.26334  -1.25568   1.06295
C     2.92538  -1.24219   2.29474
C     2.98218  -0.07337   3.05537
C     2.37396   1.08487   2.56386
C     1.70929   1.06313   1.33787
C     0.92429  -1.47130  -1.54804
C     2.19303  -1.73400  -2.34584
N    -0.25351  -1.52612  -2.40386
C    -1.36726  -0.80187  -1.77828
C    -2.03051   0.13854  -2.80899
C    -2.46327  -1.74317  -1.44321
N    -3.38267  -2.43760  -1.29870
C    -0.76189  -0.07849  -0.46531
C    -0.96587  -0.91185   0.82759
C    -0.94392  -2.31595   0.85001
C    -0.98096  -3.02827   2.05268
C    -1.03132  -2.35356   3.27248
C    -1.06059  -0.95624   3.27139
C    -1.03614  -0.25211   2.06764
C    -1.44957   1.27901  -0.28085
C    -2.82007   1.25938   0.04967
C    -3.54649   2.43445   0.22890
C    -2.91796   3.67746   0.09226
C    -1.56218   3.71648  -0.22846
C    -0.83969   2.53057  -0.41545
H     3.15590   1.80134  -2.52645
H     3.46574   0.64457  -1.17153
H     2.79347   2.24204  -0.83237
H     2.23878  -2.19218   0.50936
H     3.39759  -2.15806   2.65802
H     3.49659  -0.06381   4.01910
H     2.40654   2.01167   3.14146
H     1.22614   1.97657   0.99556
H     0.84403  -2.26525  -0.79955
H     2.31663  -1.02106  -3.17564
H     2.14493  -2.74492  -2.77693
H     3.08286  -1.67979  -1.70426
H    -0.04203  -1.06123  -3.28592
H    -2.98243   0.53468  -2.43931
H    -1.35626   0.96423  -3.04619
H    -2.23232  -0.44311  -3.72137
H    -0.88884  -2.89586  -0.06809
H    -0.96281  -4.12022   2.02619
H    -1.05001  -2.90865   4.21319
H    -1.09894  -0.40520   4.21399
H    -1.04665   0.83563   2.10000
H    -3.33005   0.30266   0.17573
H    -4.60787   2.37870   0.48193
H    -3.48055   4.60247   0.23798
H    -1.04862   4.67455  -0.33714
H     0.21153   2.62521  -0.66969
