41
Generated by autodE on: 2022-06-04. E = -924.838488 Ha
C     2.00310  -2.24950  -1.92838
C     0.66420  -1.57449  -1.76924
O    -0.31178  -1.94024  -2.41111
C     0.58710  -0.41794  -0.81121
C    -0.47219  -0.27105   0.03626
C    -1.48360  -1.34185   0.24614
C    -1.09015  -2.66231   0.52574
C    -2.04407  -3.65696   0.74705
C    -3.40725  -3.34767   0.69410
C    -3.80959  -2.03373   0.43156
C    -2.85568  -1.03637   0.22190
C    -0.66084   0.95623   0.85499
C    -0.98210   0.85329   2.22044
C    -1.15254   1.99873   3.00021
C    -1.02937   3.26640   2.42224
C    -0.73505   3.38044   1.05903
C    -0.54803   2.23635   0.28285
C     1.74188   0.52069  -0.83625
C     2.44511   0.82966   0.34096
C     3.52832   1.70915   0.31171
C     3.92787   2.29362  -0.89519
C     3.24122   1.98623  -2.07423
C     2.15988   1.10270  -2.04527
H     1.86283  -3.23268  -2.39736
H     2.51489  -2.34854  -0.95934
H     2.65256  -1.63861  -2.57544
H    -0.02653  -2.90453   0.58303
H    -1.72163  -4.67710   0.96875
H    -4.15396  -4.12642   0.86626
H    -4.87253  -1.78370   0.39351
H    -3.17365  -0.01056   0.02390
H    -1.08350  -0.13440   2.67477
H    -1.38562   1.90119   4.06317
H    -1.16966   4.16316   3.03037
H    -0.65235   4.36709   0.59709
H    -0.32159   2.33137  -0.77996
H     2.13485   0.37494   1.28360
H     4.06531   1.93816   1.23537
H     4.77453   2.98384  -0.91705
H     3.54729   2.43820  -3.02070
H     1.62155   0.87041  -2.96777
