56
Generated by autodE on: 2022-06-04. E = -1229.771457 Ha. Imaginary frequency = -206.3 cm-1
C     2.76488   1.35616  -1.51772
C     1.30385   0.96596  -1.51750
O     0.57741   1.34809  -2.44799
C     0.80725   0.12012  -0.42201
C     1.78805  -0.18966   0.68599
C     2.66846  -1.28092   0.70627
C     3.55101  -1.47763   1.77329
C     3.57402  -0.58426   2.84692
C     2.70455   0.51137   2.84242
C     1.82536   0.70192   1.77537
C     0.87605  -1.62001  -1.96026
C     2.12609  -1.71460  -2.77233
N    -0.23839  -1.21846  -2.57700
C    -1.46617  -1.04059  -1.96677
C    -2.44230  -0.22774  -2.78278
C    -2.00702  -2.14730  -1.26030
N    -2.49017  -3.03228  -0.67170
C    -0.59935   0.16463  -0.06187
C    -0.98551  -0.60272   1.17021
C    -0.53309  -1.91961   1.39522
C    -0.81858  -2.60372   2.57578
C    -1.57181  -1.99352   3.58254
C    -2.02980  -0.68835   3.38657
C    -1.74211  -0.00722   2.20195
C    -1.38919   1.42958  -0.24041
C    -2.79556   1.40063  -0.28467
C    -3.55020   2.57239  -0.33347
C    -2.91570   3.81897  -0.32558
C    -1.52151   3.87109  -0.24564
C    -0.77214   2.69313  -0.19401
H     3.00835   1.84717  -2.46917
H     3.42632   0.49474  -1.35725
H     2.95498   2.05650  -0.68780
H     2.66698  -2.00612  -0.10481
H     4.22005  -2.34167   1.76471
H     4.26149  -0.74116   3.68153
H     2.70751   1.21897   3.67531
H     1.14331   1.55476   1.78548
H     0.74399  -2.31061  -1.12993
H     2.19021  -0.89231  -3.50138
H     2.13392  -2.66753  -3.33006
H     3.02039  -1.69758  -2.13820
H    -0.08346  -0.58792  -3.36590
H    -3.44326  -0.24213  -2.34057
H    -2.10541   0.81512  -2.86201
H    -2.51778  -0.64746  -3.80103
H     0.06194  -2.42713   0.64201
H    -0.44826  -3.62335   2.70659
H    -1.79496  -2.52711   4.50949
H    -2.60789  -0.18596   4.16610
H    -2.08880   1.01927   2.09693
H    -3.30613   0.43774  -0.26229
H    -4.64050   2.51086  -0.37382
H    -3.50296   4.73947  -0.36458
H    -1.00907   4.83567  -0.20915
H     0.31072   2.76262  -0.09051
