24
Generated by autodE on: 2022-05-28. E = -679.481636 Ha
C     2.87734   0.42919   1.05365
C     2.31535   0.54477  -0.36067
N     2.69726  -0.62461  -1.18765
C     1.59288  -1.58108  -1.03314
C     0.29339  -0.75988  -0.97089
C    -0.70146  -1.18450   0.14110
O    -0.06096  -0.65394   1.31756
C    -0.04379   0.72205   0.88484
C    -1.50871   0.91203   0.50985
F    -2.12592   2.09192   0.51303
C    -1.91664  -0.27092   0.04763
F    -3.06069  -0.61557  -0.53993
C     0.75994   0.63948  -0.44477
H     3.97266   0.32985   1.01125
H     2.47231  -0.44250   1.58701
H     2.64198   1.32531   1.64783
H     2.75462   1.44061  -0.82249
H     2.67138  -0.31046  -2.15914
H     1.72271  -2.14361  -0.09503
H     1.59690  -2.30896  -1.85607
H    -0.20064  -0.70562  -1.95036
H    -0.90451  -2.25789   0.23764
H     0.34098   1.38778   1.66442
H     0.46646   1.45862  -1.11396
