11
Generated by autodE on: 2022-07-26. E = -173.299755 Ha
C    -0.41994  -1.40243  -0.56502
N    -0.31057  -0.08294  -0.79936
C     0.12625   0.90766  -0.02347
C     0.59412   0.60681   1.35000
H    -0.80886  -2.02692  -1.36540
H    -0.11901  -1.80704   0.39865
H    -0.61395   0.20764  -1.73057
H     0.11283   1.90646  -0.45579
H     1.44066  -0.11349   1.35446
H    -0.19858   0.13066   1.96675
H     0.92282   1.52012   1.86589
