24
Generated by autodE on: 2022-05-28. E = -679.360562 Ha. Imaginary frequency = -173.8 cm-1
C     3.09865   0.28279   0.98497
C     3.04829   0.47728  -0.49194
N     2.88200  -0.55913  -1.32132
C     2.26207  -1.72852  -1.09582
C     0.00257  -0.45796  -1.14761
C    -0.74296  -1.08571   0.04953
O    -0.01221  -0.50309   1.14998
C    -0.19262   0.86641   0.72239
C    -1.73321   0.88594   0.65235
F    -2.46823   1.98407   0.82515
C    -2.07582  -0.33191   0.23163
F    -3.25816  -0.82219  -0.14009
C     0.34252   0.79157  -0.72450
H     3.97582  -0.33149   1.28005
H     2.20646  -0.22523   1.37671
H     3.18892   1.25411   1.49264
H     3.52127   1.34913  -0.94591
H     3.04121  -0.34462  -2.30570
H     2.13894  -2.06986  -0.07045
H     2.23323  -2.43939  -1.91967
H    -0.07964  -0.83053  -2.16580
H    -0.79891  -2.17846   0.11248
H     0.26493   1.58328   1.41384
H     0.61010   1.66472  -1.31405
