48
Generated by autodE on: 2022-06-23. E = -1166.229030 Ha
C     2.49503   2.52199   1.41437
N     1.56891   1.87824   0.50223
C     1.38002   2.35472  -0.77692
C     0.34135   2.01201  -1.56924
C    -0.72885   1.06386  -1.10962
C    -0.75424   0.89542   0.42477
C    -1.54455   1.98968   1.15464
N    -1.47596   3.21763   0.61894
O    -2.16719   1.75541   2.19680
C    -1.22193  -0.51703   0.83786
C    -2.42026  -1.05907   0.09726
C    -2.29573  -2.06090  -0.87397
C    -3.42065  -2.51887  -1.56833
C    -4.68157  -1.98043  -1.30124
C    -4.81339  -0.98563  -0.32584
C    -3.69264  -0.53156   0.37200
O    -0.07812  -1.34937   0.59790
C     1.12438  -0.63510   0.81046
C     1.73036  -1.12516   2.06899
N     2.18514  -1.51054   3.06477
C     2.10398  -0.83957  -0.33857
C     1.69043  -1.42789  -1.53789
C     2.58633  -1.55275  -2.60406
C     3.89936  -1.09213  -2.47918
C     4.31890  -0.51635  -1.27529
C     3.42746  -0.39504  -0.20808
C     0.68212   0.88999   1.02199
H     3.30332   2.99901   0.84239
H     2.94716   1.77889   2.08780
H     2.00308   3.29448   2.03477
H     2.14702   3.05527  -1.11681
H     0.29546   2.41130  -2.58367
H    -1.72261   1.39652  -1.44791
H    -0.58615   0.07313  -1.56963
H    -0.91456   3.40296  -0.20932
H    -1.94467   3.98612   1.08944
H    -1.44004  -0.49809   1.91718
H    -1.31660  -2.49107  -1.08177
H    -3.30708  -3.30177  -2.32217
H    -5.55943  -2.33707  -1.84526
H    -5.79629  -0.56341  -0.10300
H    -3.80056   0.23809   1.13775
H     0.66718  -1.78418  -1.64114
H     2.25195  -2.01244  -3.53694
H     4.59701  -1.18665  -3.31460
H     5.34594  -0.16110  -1.16458
H     3.76786   0.04610   0.73034
H     0.59157   1.04098   2.10584
