28
Generated by autodE on: 2022-06-23. E = -708.440769 Ha
N     1.34279  -2.09960   2.80306
C     1.25531  -1.41440   1.85519
C     1.12030  -0.59631   0.72695
O    -0.12584  -0.24328   0.33733
C    -1.26973  -0.55562   0.84991
C    -2.46975  -0.04918   0.26410
C    -3.70683  -0.41026   0.84950
C    -4.90098   0.06349   0.31386
C    -4.88521   0.90078  -0.80848
C    -3.66369   1.26364  -1.39628
C    -2.46405   0.79798  -0.87170
C     2.22127  -0.09087  -0.06338
C     2.00125   0.73007  -1.19386
C     3.07635   1.20527  -1.94284
C     4.39321   0.88158  -1.59369
C     4.62080   0.06968  -0.47580
C     3.55499  -0.41177   0.28154
H    -1.28772  -1.20620   1.73063
H    -3.71292  -1.06363   1.72508
H    -5.85115  -0.21957   0.77201
H    -5.82336   1.27187  -1.22693
H    -3.65370   1.91679  -2.27172
H    -1.51400   1.08092  -1.32814
H     0.98177   0.99161  -1.48104
H     2.88199   1.83790  -2.81265
H     5.23111   1.25706  -2.18504
H     5.64214  -0.19277  -0.18884
H     3.75083  -1.04418   1.15077
