28
Generated by autodE on: 2022-07-27. E = -708.440786 Ha
N     0.86495   0.82082   3.54637
C     0.93708   0.55202   2.40699
C     0.98993   0.23219   1.04505
O    -0.17792   0.09148   0.37722
C    -1.38987   0.20190   0.81065
C    -2.48358   0.01224  -0.08770
C    -2.29831  -0.29079  -1.45937
C    -3.40120  -0.46433  -2.28679
C    -4.70147  -0.34164  -1.77337
C    -4.89456  -0.04237  -0.41903
C    -3.79889   0.13418   0.42094
C     2.20702   0.03667   0.28881
C     2.17697  -0.28603  -1.08788
C     3.36272  -0.47117  -1.79670
C     4.60513  -0.34221  -1.16377
C     4.64464  -0.02293   0.19905
C     3.46680   0.16469   0.91918
H    -1.54629   0.44118   1.86769
H    -1.28696  -0.38560  -1.85836
H    -3.25305  -0.69737  -3.34359
H    -5.56259  -0.47927  -2.43100
H    -5.90623   0.05339  -0.01880
H    -3.94256   0.36781   1.47846
H     1.21798  -0.39108  -1.59733
H     3.31512  -0.71994  -2.85992
H     5.53047  -0.48888  -1.72502
H     5.60551   0.08156   0.70911
H     3.51555   0.41282   1.98219
