48
Generated by autodE on: 2022-06-23. E = -1166.171351 Ha. Imaginary frequency = -250.6 cm-1
C     2.76607   2.07439  -0.51234
N     1.34102   1.77722  -0.57925
C     0.72099   1.69855  -1.83857
C    -0.61241   1.72773  -1.96732
C    -1.51112   1.90866  -0.77382
C    -0.80095   1.50251   0.51200
C    -1.46523   1.75227   1.81771
N    -2.77947   2.06932   1.76852
O    -0.86580   1.66876   2.90274
C    -1.14936  -0.73693   0.62692
C    -2.31746  -1.01213  -0.18712
C    -2.20859  -1.33404  -1.55610
C    -3.35561  -1.52619  -2.32165
C    -4.62444  -1.39448  -1.74088
C    -4.74036  -1.07503  -0.38381
C    -3.59615  -0.88610   0.39108
O     0.00710  -1.19061   0.17871
C     1.18143  -0.99300   0.86220
C     1.15859  -0.99438   2.26334
N     1.14951  -0.97313   3.43723
C     2.39017  -1.11418   0.08463
C     2.33579  -1.18366  -1.32676
C     3.50881  -1.21511  -2.08121
C     4.76120  -1.17336  -1.45938
C     4.82551  -1.11923  -0.05917
C     3.66262  -1.09605   0.70404
C     0.60708   1.60651   0.53913
H     3.32106   1.44575  -1.22135
H     3.13286   1.87587   0.50059
H     2.94989   3.13336  -0.75913
H     1.40734   1.61496  -2.68190
H    -1.05458   1.65357  -2.96227
H    -1.83505   2.96796  -0.70644
H    -2.43974   1.33428  -0.91745
H    -3.31588   2.02558   0.91082
H    -3.28437   2.15492   2.64469
H    -1.27038  -0.68327   1.71271
H    -1.22122  -1.42209  -2.01120
H    -3.26371  -1.77597  -3.38110
H    -5.52115  -1.54282  -2.34683
H    -5.72743  -0.97666   0.07347
H    -3.68176  -0.63724   1.45014
H     1.36836  -1.19981  -1.82759
H     3.44153  -1.26230  -3.17117
H     5.67671  -1.18854  -2.05478
H     5.79638  -1.09352   0.44214
H     3.72895  -1.04513   1.79339
H     1.12793   1.71561   1.48808
