40
Generated by autodE on: 2022-05-31. E = -1379.601629 Ha
C    -5.53156   0.75516   0.86494
N    -4.37116   0.21060   0.18509
C    -3.21225   0.00998   0.82893
O    -3.05716   0.23574   2.03776
C    -2.05976  -0.52748   0.05867
C    -1.51316  -0.22902  -1.13420
C    -1.92297   0.77654  -2.16057
F    -3.22742   0.68026  -2.49165
F    -1.72146   2.03976  -1.73621
F    -1.21770   0.62693  -3.29448
C    -0.14546  -0.90690  -1.13662
O    -0.40273  -2.07152  -0.34920
C    -1.00913  -1.39271   0.75383
C     0.12298  -0.41604   1.19456
C     1.25512  -1.14269   1.96872
C     1.82088  -0.26626   3.00803
N     2.24565   0.42961   3.83309
N     2.28417  -1.54324   0.99647
C     2.22514  -0.53335  -0.07514
C     2.73332  -1.09362  -1.32953
N     3.13819  -1.52538  -2.32688
C     3.15276   0.69222   0.25233
O     2.93270   1.79028  -0.25226
N     4.16880   0.39343   1.06533
C     5.05805   1.39388   1.61851
C     0.74912  -0.05064  -0.18487
H    -5.77923   0.15616   1.75439
H    -5.35483   1.79241   1.19205
H    -6.38420   0.74016   0.17592
H    -4.42536   0.01179  -0.80792
H     0.28228  -1.15810  -2.11155
H    -1.36395  -2.08708   1.52162
H    -0.27931   0.43576   1.75131
H     0.88115  -2.03923   2.48393
H     2.00844  -2.44649   0.61117
H     4.15012  -0.53977   1.47247
H     4.68261   1.75856   2.58943
H     6.05742   0.96285   1.76620
H     5.13048   2.24252   0.92690
H     0.71695   1.01108  -0.44417
