17
Generated by autodE on: 2022-05-31. E = -526.684010 Ha
C     3.78962  -0.78653  -0.27891
N     2.55460  -0.04046  -0.41304
C     1.36184  -0.50289   0.00022
O     1.18434  -1.61117   0.53422
C     0.19027   0.37901  -0.20205
C     0.22962   1.66018  -0.77786
N     0.27753   2.72411  -1.25841
N    -0.96837  -0.15603   0.22922
C    -2.20279   0.31404   0.22086
C    -3.25982  -0.45619   0.74198
N    -4.15480  -1.07350   1.16760
H     4.52010  -0.22848   0.32727
H     4.23752  -0.98649  -1.26489
H     3.57727  -1.74200   0.21369
H     2.60029   0.87810  -0.84432
H    -0.79217  -1.09796   0.62388
H    -2.40108   1.30399  -0.19471
