17
Generated by autodE on: 2022-07-27. E = -526.669040 Ha
C     1.84107   1.81621   1.24041
N     1.28454   0.60193   0.67440
C     0.56456   0.62301  -0.46191
O     0.50201   1.60957  -1.20387
C    -0.12138  -0.64617  -0.84218
C    -0.07210  -1.01268  -2.20365
N    -0.01618  -1.30324  -3.33365
N    -0.82877  -1.44202  -0.01000
C    -1.26855  -1.32097   1.24225
C    -1.16432  -0.15749   2.02399
N    -1.13909   0.78549   2.71286
H     1.04702   2.55005   1.45218
H     2.56431   2.27934   0.55205
H     2.35252   1.56612   2.17738
H     1.35179  -0.25553   1.21269
H    -1.12698  -2.32398  -0.44143
H    -1.80658  -2.17787   1.64737
