23
Generated by autodE on: 2022-05-31. E = -852.834718 Ha
C     4.14008   0.47083  -0.17805
N     2.77912   0.67528   0.27391
C     1.78287  -0.20232   0.04456
O     1.93905  -1.27263  -0.54003
C     0.45279   0.21344   0.55175
C    -0.75952  -0.18198   0.13389
C    -1.15425  -1.12077  -0.95807
F    -0.51154  -0.87842  -2.11422
F    -0.92740  -2.40799  -0.63931
F    -2.47398  -1.00971  -1.21749
C    -1.76870   0.67024   0.94401
C    -1.63365   2.12408   0.43534
C    -0.43216   2.52370   0.85989
C     0.14228   1.30636   1.61858
O    -1.05435   0.75566   2.18620
H     4.38708   1.13347  -1.02356
H     4.25536  -0.56968  -0.50263
H     4.84771   0.67288   0.63959
H     2.55962   1.55808   0.72411
H    -2.77621   0.26086   1.06341
H    -2.36796   2.63804  -0.18335
H     0.09793   3.45965   0.68888
H     0.91487   1.48931   2.37251
