30
Generated by autodE on: 2022-06-24. E = -838.109646 Ha
C     4.68328  -0.37905   0.84310
N     3.66550  -0.56698  -0.17140
C     2.35674  -0.35746   0.08867
O     1.94013  -0.07691   1.23152
C     1.42876  -0.44114  -1.02986
C     1.82349  -0.43977  -2.37680
N     2.18552  -0.47665  -3.48984
O     0.12385  -0.09749  -0.85321
C    -0.62444  -0.14985   0.20496
C    -0.29197  -1.02342   1.39057
C     0.22819  -2.40674   1.10109
O    -0.64263  -0.68252   2.50773
C    -1.87358   0.57841   0.10244
C    -2.04201   1.52159  -0.94108
C    -3.23678   2.21825  -1.07397
C    -4.28543   1.99627  -0.17139
C    -4.13114   1.06882   0.86470
C    -2.94021   0.36234   1.00728
H     4.32554  -0.76756   1.80616
H     5.58739  -0.92802   0.55013
H     4.94684   0.68397   0.97895
H     3.96348  -0.68273  -1.13523
H    -0.61700  -3.09688   1.26098
H     1.01798  -2.65707   1.82278
H     0.60362  -2.54064   0.07868
H    -1.21990   1.70824  -1.63238
H    -3.35211   2.94672  -1.87924
H    -5.22190   2.54873  -0.27561
H    -4.94923   0.89017   1.56543
H    -2.84029  -0.36515   1.81017
