53
Generated by autodE on: 2022-06-24. E = -1189.645773 Ha. Imaginary frequency = -156.8 cm-1
C     2.31144   3.18695  -0.29545
N     0.97431   2.64152  -0.42103
C     0.32010   2.69638  -1.60731
O     0.71674   3.38754  -2.56476
C    -0.87813   1.87730  -1.74211
C    -1.60224   1.87803  -2.94060
N    -2.19572   1.87330  -3.95026
O    -1.21376   1.10709  -0.68726
C    -2.01399   0.06896  -0.64698
C    -3.29983   0.05233  -1.44943
C    -4.12077   1.31661  -1.38514
O    -3.72517  -0.96454  -1.96408
C    -1.96049  -0.68305   0.60842
C    -1.18379  -0.20542   1.68665
C    -1.12412  -0.91965   2.87933
C    -1.81973  -2.12647   3.01692
C    -2.58751  -2.60943   1.95211
C    -2.66820  -1.89396   0.75868
C    -0.68858  -1.35250  -2.23357
C     0.41225  -0.59422  -2.54664
C     0.61847  -0.06415  -3.94207
C     1.47444  -0.31864  -1.59156
C     1.58230  -0.81987  -0.33099
C     2.62607  -0.42551   0.58424
C     2.86361  -0.94370   1.81845
C     2.09091  -2.07624   2.42851
C     3.97821  -0.40705   2.66855
H     2.32121   4.25201  -0.56752
H     3.03523   2.66466  -0.94488
H     2.63862   3.08783   0.74683
H     0.71862   1.89062   0.21197
H    -3.56004   2.20120  -1.06020
H    -4.91951   1.12375  -0.64836
H    -4.58868   1.50092  -2.36237
H    -0.64224   0.73480   1.59055
H    -0.52678  -0.53361   3.70745
H    -1.76448  -2.68755   3.95231
H    -3.13163  -3.55108   2.05163
H    -3.26533  -2.27818  -0.06741
H    -1.44701  -1.55662  -2.98982
H    -0.72344  -1.95904  -1.33055
H    -0.30373  -0.10512  -4.53623
H     0.99117   0.97140  -3.93346
H     1.38163  -0.67643  -4.45431
H     2.24180   0.38731  -1.92695
H     0.84823  -1.55062   0.01677
H     3.28630   0.37674   0.23635
H     2.76400  -2.93666   2.59346
H     1.24449  -2.41613   1.82007
H     1.71025  -1.79016   3.42287
H     4.69035  -1.20974   2.93079
H     3.58415  -0.02441   3.62709
H     4.52972   0.40271   2.16928
