37
Generated by autodE on: 2022-06-17. E = -750.710576 Ha
C     2.41613  -0.04703   2.01283
O     1.38332  -0.15943   1.02708
C     1.56482   0.46057  -0.14072
O     2.58706   1.05898  -0.41154
C     0.33661   0.32784  -1.06694
C     0.73843   0.87075  -2.43861
N    -0.15317  -1.05078  -1.15512
C     0.83260  -2.07099  -1.45194
C    -1.02413  -1.36771  -0.01327
C    -2.18086  -2.28277  -0.40217
C    -1.47628  -0.00359   0.53824
C    -1.24156   0.16459   2.01658
O    -1.00615  -0.74030   2.79408
C    -0.87594   1.08936  -0.40871
C    -1.93335   1.44024  -1.46792
C    -0.44828   2.38789   0.28432
H     2.61488   1.01010   2.24066
H     2.03806  -0.56295   2.90290
H     3.33994  -0.52560   1.65738
H     1.65509   0.38287  -2.79806
H     0.93902   1.95028  -2.38973
H    -0.05840   0.68963  -3.16916
H     1.40139  -1.80967  -2.35605
H     1.55560  -2.23978  -0.62522
H     0.33131  -3.03049  -1.64888
H    -0.44411  -1.87876   0.77619
H    -2.78627  -2.52221   0.48648
H    -1.81461  -3.23281  -0.82194
H    -2.83281  -1.80278  -1.14919
H    -2.57771   0.08878   0.48484
H    -1.38833   1.19852   2.40370
H    -2.82556   1.84474  -0.96581
H    -2.24059   0.55688  -2.04485
H    -1.56877   2.20555  -2.16758
H    -1.32400   2.90831   0.70089
H     0.26490   2.23224   1.10639
H     0.02252   3.06293  -0.44664
