14
Generated by autodE on: 2022-06-17. E = -270.687346 Ha
C    -1.48445   1.18170  -0.45639
C    -0.92284  -0.19502  -0.26292
C    -1.88931  -1.31039  -0.52174
C     0.35345  -0.46986   0.11491
C     1.38635   0.51286   0.39173
O     2.53020   0.21664   0.72895
H    -1.85533   1.28440  -1.49041
H    -0.77322   1.99163  -0.25835
H    -2.36170   1.31552   0.19902
H    -1.43657  -2.29990  -0.37023
H    -2.27434  -1.24560  -1.55423
H    -2.76757  -1.21178   0.13959
H     0.66628  -1.51323   0.22888
H     1.10661   1.58508   0.28621
