23
Generated by autodE on: 2022-07-27. E = -479.959867 Ha
C    -2.63575  -1.82533   1.31287
C    -1.47931  -0.96481   0.93582
N    -0.99752  -0.83676  -0.28490
C    -1.64270  -1.59605  -1.37451
C     0.09393  -0.03620  -0.68263
C     0.45111   0.00512  -2.14415
C     0.82187   0.69679   0.28338
O     0.62883   0.75709   1.51524
O     1.87125   1.41878  -0.25764
C     2.64054   2.18630   0.65747
H    -2.45827  -2.89494   1.10241
H    -2.81405  -1.72307   2.39185
H    -3.56626  -1.54217   0.79003
H    -0.96391  -0.38058   1.69320
H    -2.06380  -0.89983  -2.10942
H    -0.89923  -2.23042  -1.87004
H    -2.44081  -2.22465  -0.97880
H     0.76603  -0.97340  -2.54841
H    -0.37492   0.36216  -2.78376
H     1.28824   0.69530  -2.28653
H     3.11865   1.55149   1.42070
H     2.02680   2.94438   1.17023
H     3.41563   2.68654   0.06156
