37
Generated by autodE on: 2022-06-17. E = -750.651373 Ha. Imaginary frequency = -252.1 cm-1
C     3.46419   1.39430   0.96851
O     2.59923   1.00677  -0.10075
C     1.64063   0.09851   0.19343
O     1.58264  -0.40282   1.31427
C     0.73425  -0.12869  -0.93622
C     1.21918   0.35950  -2.27867
N    -0.01991  -1.32685  -0.92262
C    -0.49709  -1.85532  -2.20743
C    -0.60364  -1.74817   0.19861
C    -1.61571  -2.83309   0.26980
C    -1.79331   0.35190   0.41069
C    -1.89489   0.16818   1.82168
O    -2.76041  -0.51318   2.40186
C    -0.92024   1.26303  -0.23673
C    -1.38283   1.77143  -1.58344
C    -0.16613   2.30626   0.56014
H     4.16119   2.12604   0.54228
H     4.02006   0.52909   1.35845
H     2.89275   1.85504   1.78809
H     2.06145  -0.24318  -2.66303
H     0.42687   0.35693  -3.03458
H     1.57499   1.39115  -2.18241
H     0.31633  -1.84423  -2.93868
H    -0.81635  -2.89291  -2.07754
H    -1.33954  -1.25991  -2.59016
H    -0.09783  -1.46498   1.11276
H    -2.17852  -2.70631   1.20614
H    -1.13033  -3.82549   0.31120
H    -2.32588  -2.83030  -0.56747
H    -2.59695  -0.09941  -0.18062
H    -1.11442   0.67329   2.43679
H    -2.18000   2.52104  -1.42550
H    -1.80232   0.97012  -2.20825
H    -0.58107   2.27455  -2.14027
H    -0.85346   3.12618   0.83412
H     0.64314   2.74746  -0.03804
H     0.26794   1.91526   1.48866
