39
Generated by autodE on: 2022-06-18. E = -968.588259 Ha
C     2.91394   1.04160  -2.96416
N     1.74336   0.59225  -2.23275
C     1.59175   0.89367  -0.94056
O     2.38408   1.59575  -0.30557
C     0.37071   0.29324  -0.20572
C     0.92277  -0.86624   0.66355
O     0.96033  -2.00936   0.19387
N     1.33785  -0.51546   1.87986
C     1.77211  -1.45325   2.89487
C    -0.81971  -0.24887  -1.05506
C    -0.57721  -1.56605  -1.76301
O     0.07956  -1.63375  -2.78996
C    -2.03588  -0.20332  -0.07399
C    -3.24483   0.45856  -0.73411
C    -2.43677  -1.55038   0.52666
N    -1.48824   0.69766   1.01209
C    -1.64125   0.43015   2.30266
N    -1.80994   0.23863   3.44400
N    -0.25316   1.30883   0.65676
C    -0.46584   2.63229   0.05635
H     3.84006   0.62616  -2.53463
H     2.99245   2.13881  -2.94069
H     2.82614   0.71322  -4.00678
H     1.12681  -0.10193  -2.66694
H     1.19328   0.46062   2.12921
H     1.87913  -2.44675   2.44343
H     1.03131  -1.50557   3.70872
H     2.73940  -1.14477   3.31806
H    -0.99340   0.48257  -1.85700
H    -1.08817  -2.46684  -1.37679
H    -2.99240   1.46097  -1.10692
H    -4.07195   0.54702  -0.01377
H    -3.58615  -0.15448  -1.58233
H    -2.89890  -2.18264  -0.24333
H    -3.18945  -1.39424   1.31318
H    -1.58320  -2.08863   0.96051
H    -0.93956   2.59092  -0.93930
H     0.50121   3.14099  -0.02414
H    -1.10773   3.20874   0.73400
