14
Generated by autodE on: 2022-06-18. E = -270.683225 Ha
C    -1.04697  -1.52961   1.44355
C    -0.50385  -0.55808   0.44399
C    -1.41548  -0.19944  -0.69452
C     0.75032  -0.04917   0.58993
C     1.39536   0.89780  -0.30704
O     0.91796   1.38369  -1.32999
H    -1.32705  -2.47041   0.93757
H    -0.33442  -1.75229   2.24962
H    -1.97924  -1.13372   1.88352
H    -2.37936  -0.72048  -0.61034
H    -1.59733   0.88648  -0.72642
H    -0.95488  -0.45543  -1.66199
H     1.35041  -0.36209   1.44939
H     2.42929   1.18558   0.00309
