25
Generated by autodE on: 2022-06-18. E = -697.862685 Ha
C    -2.57198   3.01181   0.91830
N    -1.63492   2.13472   0.24526
C    -1.27595   0.96557   0.79191
O    -1.77714   0.51269   1.82774
C    -0.18460   0.20154   0.07660
C     0.97538   0.97419  -0.50051
O     0.78094   2.13404  -0.90464
N     2.18078   0.39773  -0.54256
C     3.31914   1.09236  -1.11106
N    -0.25960  -1.12177   0.05068
C    -1.51580  -1.84958   0.35469
N     0.80296  -1.85548  -0.28467
C     0.65973  -3.15251  -0.43803
N     0.68853  -4.31580  -0.59746
H    -2.16523   3.38886   1.87180
H    -2.79263   3.86416   0.26454
H    -3.50845   2.47888   1.13843
H    -1.01335   2.49319  -0.48300
H     2.22246  -0.60098  -0.33501
H     4.21434   0.47530  -0.96967
H     3.17976   1.28050  -2.18824
H     3.46876   2.06295  -0.61516
H    -2.36609  -1.16964   0.36574
H    -1.64578  -2.59797  -0.43696
H    -1.40556  -2.34915   1.32516
