39
Generated by autodE on: 2022-06-18. E = -968.539045 Ha. Imaginary frequency = -328.3 cm-1
C     2.63802   0.79898  -3.25059
N     1.63519   0.42245  -2.27018
C     1.67415   0.93071  -1.03692
O     2.47687   1.79532  -0.67181
C     0.67591   0.39545  -0.01159
C     1.26803  -0.78075   0.74429
O     2.18085  -1.41098   0.19564
N     0.81207  -1.06690   1.97006
C     1.28130  -2.23971   2.68272
C    -1.04065  -0.66773  -1.00367
C    -0.43433  -1.94218  -1.32258
O     0.24845  -2.13312  -2.33372
C    -2.08897  -0.52496  -0.03409
C    -3.26383   0.33369  -0.43328
C    -2.42635  -1.65046   0.90964
N    -1.14655   0.71180   1.27110
C    -1.94167   1.47372   2.00188
N    -2.71150   2.03751   2.68091
N    -0.14760   1.30341   0.55967
C    -0.42579   2.58152  -0.11499
H     2.66031   1.89040  -3.38292
H     2.38705   0.32820  -4.20886
H     3.64500   0.47110  -2.94367
H     1.06433  -0.40825  -2.45878
H    -0.03494  -0.58927   2.27266
H     2.37378  -2.21137   2.80746
H     0.81021  -2.26221   3.67269
H     1.02356  -3.16564   2.14222
H    -1.05997   0.03948  -1.83788
H    -0.59544  -2.77793  -0.61013
H    -3.83824   0.67974   0.43830
H    -2.95507   1.20172  -1.03127
H    -3.94360  -0.28160  -1.04755
H    -3.07537  -2.37555   0.39069
H    -2.98901  -1.26432   1.77223
H    -1.53980  -2.18028   1.27767
H    -0.90189   2.39876  -1.09055
H     0.51291   3.12592  -0.24834
H    -1.09761   3.16965   0.52036
