14
Generated by autodE on: 2022-05-29. E = -457.015071 Ha
C     2.87429  -0.04331  -0.30449
O     1.53793  -0.00921   0.22934
C     0.54882  -0.03122  -0.64969
O     0.67317  -0.07900  -1.85500
C    -0.80548   0.00964  -0.00457
C    -2.05306  -0.00483  -0.77063
O    -0.80258   0.05694   1.26543
O    -1.98711   0.09466   1.91439
H     3.54270  -0.01814   0.56293
H     3.02702  -0.96592  -0.88224
H     3.04588   0.83047  -0.94904
H    -2.64223   0.89119  -0.50527
H    -1.85641  -0.04563  -1.84619
H    -2.66045  -0.86740  -0.44268
