14
Generated by autodE on: 2022-07-26. E = -457.005042 Ha
C     2.40355  -1.17745   0.99422
O     1.16705  -0.44786   1.07973
C     0.51711  -0.24026  -0.06162
O     0.88867  -0.61597  -1.14964
C    -0.72297   0.56797   0.21648
C    -0.89054   1.32104   1.47907
O    -1.67299   0.66167  -0.62199
O    -1.70190   0.02032  -1.80839
H     2.22449  -2.17719   0.57364
H     3.11925  -0.63316   0.36166
H     2.77748  -1.25327   2.02089
H    -0.89627   0.61852   2.32862
H    -1.82722   1.89171   1.45837
H    -0.03402   1.99844   1.62756
