20
Generated by autodE on: 2022-05-29. E = -709.338428 Ha
F    -0.29354  -1.55676   1.66720
C    -0.59071  -0.96896   0.51255
C     0.17552  -0.13666  -0.21106
C     1.51810   0.39816   0.09441
F     2.08986  -0.19589   1.15736
F     1.48162   1.72826   0.35679
F     2.37199   0.25339  -0.94509
C    -0.72885   0.38706  -1.32395
C    -1.75777   1.34395  -0.64235
C    -2.61138   0.37190   0.22317
C    -1.97342  -1.02710  -0.08087
C    -1.61076  -0.85645  -1.57217
H    -0.20003   0.81094  -2.18632
H    -2.37164   1.84495  -1.40516
H    -1.25253   2.11815  -0.04918
H    -2.58012   0.60565   1.29657
H    -3.66455   0.36817  -0.09232
H    -2.57507  -1.89316   0.21917
H    -1.04828  -1.70902  -1.97870
H    -2.48675  -0.64547  -2.20323
