34
Generated by autodE on: 2022-05-29. E = -1166.338924 Ha. Imaginary frequency = -236.9 cm-1
C     4.02583  -0.10040   0.52474
O     2.87010   0.70111   0.81315
C     2.10242   1.02865  -0.22216
O     2.36516   0.78446  -1.37799
C     0.91868   1.82450   0.25235
C     1.04360   2.66795   1.47186
O    -0.00796   2.19553  -0.57790
O    -0.33692   1.35948  -1.58353
C    -1.00138  -0.39179  -0.23144
C    -0.67808  -1.34951  -1.33134
F     0.63892  -1.45068  -1.56682
F    -1.27806  -1.02494  -2.48861
F    -1.10454  -2.60230  -1.02463
C    -2.42450  -0.00687   0.13613
C    -2.96396  -1.17996   1.02603
C    -2.10115  -1.07269   2.31714
C    -1.20654   0.18030   2.03770
C    -2.18415   1.05544   1.23079
C    -0.27496  -0.25707   0.93071
F     0.81399  -0.99495   1.21569
H     3.71746  -1.04250   0.04887
H     4.71286   0.44198  -0.14007
H     4.50376  -0.29696   1.49073
H     1.88894   3.36852   1.36434
H     1.25635   2.03041   2.34140
H     0.11869   3.23200   1.64280
H    -3.06638   0.26858  -0.70799
H    -2.88006  -2.15442   0.53042
H    -4.02733  -0.99798   1.23872
H    -1.49170  -1.96852   2.50205
H    -2.72069  -0.89323   3.20730
H    -0.71978   0.61959   2.91619
H    -1.76005   1.99249   0.85908
H    -3.10290   1.27325   1.79309
