23
Generated by autodE on: 2022-06-23. E = -351.521381 Ha
C     3.66358  -0.86839  -0.35172
C     2.56984  -0.07817  -0.28016
C     2.67950   1.42193  -0.37996
C     1.24799  -0.67582  -0.10180
C     0.07749   0.00449  -0.01221
C    -1.20837  -0.63892   0.16494
C    -2.41795  -0.03269   0.26996
C    -2.62998   1.45387   0.22129
C    -3.67069  -0.84288   0.44871
H     4.66430  -0.44784  -0.48439
H     3.58083  -1.95723  -0.27881
H     2.28363   1.91053   0.52588
H     2.08992   1.80790  -1.22812
H     3.72401   1.73681  -0.51361
H     1.22251  -1.77032  -0.03673
H     0.09468   1.09584  -0.07595
H    -1.18629  -1.73420   0.21771
H    -3.12922   1.79826   1.14420
H    -1.70318   2.02907   0.09928
H    -3.30937   1.71582  -0.60912
H    -4.38542  -0.64390  -0.37011
H    -4.19041  -0.56004   1.38183
H    -3.46684  -1.92333   0.47753
