40
Generated by autodE on: 2022-06-20. E = -1010.571732 Ha
C     3.50175   0.91568  -0.70702
C     2.41247   0.96993   0.31469
O     2.50467   1.54392   1.38400
C     1.11632   0.21866   0.03578
O     1.08610  -0.31320  -1.33403
C     0.19929  -1.33845  -1.29282
O    -0.08186  -2.01427  -2.24803
C    -0.29454  -1.41826   0.16637
C    -0.83862  -2.76902   0.55970
N     0.91263  -0.93624   0.88187
C     2.02295  -1.88282   0.99812
C    -1.25752  -0.17210   0.34502
C    -1.90054  -0.23620   1.75689
N    -1.04521  -0.25882   2.79273
O    -3.12381  -0.25378   1.90716
C    -2.37091  -0.13283  -0.72199
C    -1.98118   0.57519  -1.98642
C    -1.12450   1.60632  -1.93550
N    -0.51523   2.01422  -0.74856
C     0.43349   3.11076  -0.83042
C    -0.22111   1.01151   0.24987
H     4.35284   1.52460  -0.37780
H     3.13316   1.25853  -1.68511
H     3.81409  -0.13399  -0.83876
H    -1.78416  -2.95419   0.03137
H    -0.13871  -3.57024   0.28605
H    -1.02523  -2.81602   1.64086
H     2.36306  -2.29106   0.02913
H     2.87043  -1.38608   1.48991
H     1.71044  -2.71750   1.63853
H    -1.41748  -0.36940   3.73079
H    -0.05155  -0.38897   2.60290
H    -2.71068  -1.15876  -0.92877
H    -3.23648   0.37389  -0.26712
H    -2.44310   0.29030  -2.93224
H    -0.87150   2.19887  -2.81865
H     1.37658   2.83543  -1.34012
H     0.68069   3.46606   0.17970
H    -0.01259   3.94707  -1.38702
H    -0.11420   1.51174   1.21966
