20
Generated by autodE on: 2022-06-20. E = -552.846208 Ha
C    -3.09124   0.21640   0.02813
C    -1.93934  -0.75038  -0.07652
O    -2.11217  -1.96634  -0.20693
C    -0.61887  -0.15600  -0.01542
O    -0.46473   1.17705   0.13195
C     0.90816   1.49240   0.16304
O     1.28866   2.64852   0.28958
C     1.56843   0.24028   0.02240
C     3.02584  -0.02268  -0.00678
N     0.60320  -0.71343  -0.08204
C     0.90278  -2.13622  -0.24391
H    -3.05871   0.94500  -0.79773
H    -4.03228  -0.34656  -0.01071
H    -3.03548   0.78787   0.96805
H     3.34131  -0.67776   0.82273
H     3.33724  -0.50613  -0.94787
H     3.55927   0.93312   0.08502
H     1.49150  -2.27130  -1.16082
H     1.49438  -2.47299   0.61763
H    -0.03662  -2.68867  -0.30467
