16
Generated by autodE on: 2022-05-29. E = -346.852370 Ha
C    -2.36916   0.73556   0.61018
C    -1.07757   0.06143   0.31822
C    -0.37754  -0.86969   0.97895
C     0.93966  -1.02314   0.18640
C     1.74388   0.28731   0.36879
C     1.04749   1.21234  -0.29905
C    -0.16399   0.44682  -0.87874
O     0.44839  -0.82772  -1.15822
H    -2.21110   1.82037   0.74981
H    -2.84335   0.33524   1.51830
H    -3.07483   0.63005  -0.23201
H    -0.61107  -1.36938   1.91889
H     1.48744  -1.96650   0.29128
H     2.64120   0.39536   0.97783
H     1.21786   2.28487  -0.38885
H    -0.65845   0.87272  -1.75967
