22
Generated by autodE on: 2022-05-29. E = -666.179272 Ha
C    -2.08128  -2.97555   0.67519
O    -1.19728  -1.87770   0.41710
C    -1.77206  -0.67864   0.21527
O    -2.97896  -0.50538   0.24355
C    -0.77557   0.36349  -0.03786
N     0.50399   0.02308  -0.03541
C     1.66600  -0.10158  -0.06981
C     3.10604  -0.25448  -0.08392
C     3.85681   0.99988  -0.41973
O     3.60544  -1.34281   0.15245
C    -1.02544   1.79062  -0.30290
C    -2.44440   2.28818  -0.32845
O    -0.07325   2.54732  -0.49708
H    -2.76621  -3.12941  -0.17149
H    -2.66675  -2.79535   1.58869
H    -1.43943  -3.85459   0.80575
H     4.71153   1.09777   0.26625
H     3.21543   1.89095  -0.37103
H     4.24926   0.89761  -1.44572
H    -2.43429   3.36538  -0.53962
H    -3.02741   1.75648  -1.09515
H    -2.93929   2.09538   0.63512
