47
Generated by autodE on: 2022-06-03. E = -3630.424363 Ha
C    -2.22186  -2.70628   1.01488
C    -2.51693  -1.71701  -0.08013
O    -3.64726  -1.54151  -0.50046
C    -1.36171  -0.90561  -0.68501
N    -0.10017  -1.60297  -0.68591
C    -0.06273  -2.75024  -1.57690
C     1.00222  -0.63137  -0.83018
C     1.22318  -0.26960  -2.31363
C     2.28567  -1.20813  -0.22124
C     3.54884  -0.70109  -0.56494
C     4.71099  -1.20333   0.02799
C     4.63391  -2.23127   0.97144
C     3.38234  -2.75064   1.31490
C     2.22220  -2.24280   0.72521
C     0.46951   0.63066   0.00363
C     0.99480   1.92390  -0.63137
C     2.29707   2.49443  -0.11289
O     0.42844   2.45768  -1.56390
C     0.81997   0.56102   1.54387
C     0.31080   1.85024   2.17700
C    -1.01856   1.71253   2.23078
C    -1.29754   0.33515   1.64540
O    -0.13158  -0.39545   2.02621
C    -1.09478   0.41113   0.09052
Br   -2.33837   1.78655  -0.58639
H    -3.11566  -2.83244   1.64124
H    -1.34827  -2.42495   1.61348
H    -1.99902  -3.68005   0.54673
H    -1.69815  -0.63762  -1.70567
H    -0.75456  -3.52854  -1.22319
H     0.94461  -3.18870  -1.58422
H    -0.34379  -2.50413  -2.61986
H     1.98462   0.50589  -2.45145
H     1.55822  -1.15769  -2.86528
H     0.29373   0.09993  -2.76808
H     3.63861   0.10158  -1.29653
H     5.68174  -0.78833  -0.25386
H     5.54209  -2.62676   1.43255
H     3.30619  -3.55777   2.04781
H     1.24742  -2.64559   0.99672
H     2.86079   1.81196   0.53268
H     2.91331   2.78495  -0.97580
H     2.07364   3.41274   0.45373
H     1.84125   0.25278   1.77521
H     0.92222   2.70920   2.44792
H    -1.77349   2.42577   2.55653
H    -2.21932  -0.15953   1.96678
