18
Generated by autodE on: 2022-06-03. E = -3033.824573 Ha
C    -2.74921  -0.21874  -0.55881
C    -1.57515  -0.71640  -1.35565
O    -1.71105  -1.16601  -2.49214
C    -0.22821  -0.66121  -0.77615
C     0.31595  -0.07582   0.31022
Br   -0.42318   0.95476   1.67743
C     1.84611  -0.29526   0.19299
C     2.31807   0.58100  -0.98945
C     1.79848  -0.00689  -2.07079
C     1.01207  -1.21852  -1.52783
O     1.84156  -1.59299  -0.41047
H    -2.77502  -0.68073   0.43982
H    -2.66922   0.87064  -0.41149
H    -3.67709  -0.44313  -1.10086
H     2.41849  -0.25794   1.12560
H     2.89675   1.49874  -0.89487
H     1.83639   0.29458  -3.11681
H     0.81777  -2.05305  -2.20755
