29
Generated by autodE on: 2022-07-27. E = -596.538842 Ha
C    -4.70547   0.13117  -0.41055
C    -3.39666  -0.49493   0.05237
O    -3.47727  -1.58806   0.68160
C    -2.23932   0.22977  -0.29865
N    -0.91474  -0.07745   0.02818
C    -0.69123  -0.95464   1.19532
C     0.10518   0.41167  -0.66324
C    -0.16659   1.14700  -1.93285
C     1.49890   0.30344  -0.18784
C     2.50286  -0.13953  -1.07142
C     3.83191  -0.21799  -0.65526
C     4.18726   0.16584   0.64224
C     3.20255   0.62818   1.52112
C     1.86978   0.69526   1.11332
H    -5.33436   0.33799   0.47179
H    -4.57809   1.06138  -0.98184
H    -5.25487  -0.59878  -1.02801
H    -2.35960   1.11486  -0.91410
H     0.28742  -1.43573   1.12261
H    -1.49442  -1.69652   1.19913
H    -0.75283  -0.36370   2.11889
H    -0.90364   0.60939  -2.55281
H    -0.59322   2.14519  -1.72312
H     0.75910   1.29759  -2.50029
H     2.23373  -0.44109  -2.08588
H     4.59456  -0.58005  -1.34856
H     5.22937   0.11065   0.96519
H     3.47380   0.94509   2.53081
H     1.11396   1.07467   1.80231
