44
Generated by autodE on: 2022-06-04. E = -1238.001644 Ha
C    -2.17089  -3.26554   1.15052
N    -1.66284  -2.16979   0.34847
C    -1.63161  -0.91684   0.81220
O    -2.12850  -0.58995   1.89643
C    -0.98863   0.13500  -0.09570
C    -1.67669   0.04440  -1.53324
C    -1.30282   1.24315  -2.38320
C    -0.02225   1.04926  -2.71785
C     0.37672  -0.25700  -2.05968
O    -0.86183  -0.99010  -2.09588
C     0.53983  -0.05311  -0.49511
C     1.22713  -1.23188   0.19316
C     1.58818  -2.39662  -0.50045
C     2.16279  -3.48323   0.16562
C     2.38312  -3.43334   1.54296
C     2.02214  -2.28222   2.24864
C     1.45401  -1.19631   1.58056
C     1.16007   1.30803  -0.09491
C     2.25652   1.83108  -1.01288
C     2.35373   3.31147  -1.19891
O     3.03228   1.03060  -1.50361
O     0.08326   2.24729   0.01166
C    -1.01830   1.55619   0.56059
C    -0.86027   1.57936   2.04535
N    -0.58841   1.79404   3.15224
C    -2.25900   2.29424   0.24792
N    -3.24775   2.85046   0.01658
H    -1.55967  -3.40885   2.05649
H    -3.20895  -3.07741   1.46314
H    -2.13952  -4.18379   0.55203
H    -1.21345  -2.35859  -0.54360
H    -2.73263  -0.23846  -1.49241
H    -1.95292   2.08683  -2.60686
H     0.63980   1.69737  -3.28999
H     1.18949  -0.80848  -2.53298
H     1.41193  -2.48865  -1.57090
H     2.43273  -4.37644  -0.40249
H     2.82853  -4.28437   2.06307
H     2.18088  -2.22542   3.32792
H     1.16946  -0.32048   2.16503
H     1.64443   1.21970   0.89323
H     2.41471   3.80673  -0.21619
H     3.23195   3.55742  -1.80909
H     1.43576   3.68078  -1.68275
