14
Generated by autodE on: 2022-06-04. E = -491.095617 Ha
C    -2.88383  -0.42362   0.25837
C    -2.18969   0.89024   0.05491
O    -2.76646   1.96889  -0.03174
C    -0.72430   0.89575  -0.05279
O    -0.11490  -0.22893   0.04091
C     1.19418  -0.49887  -0.02565
C     2.12986   0.53030  -0.23353
N     2.88217   1.40621  -0.40714
C     1.55059  -1.85218   0.12088
N     1.87034  -2.96835   0.24064
H    -2.51964  -0.90953   1.17774
H    -3.96600  -0.25650   0.32444
H    -2.65826  -1.10467  -0.57814
H    -0.16112   1.82190  -0.21197
