30
Generated by autodE on: 2022-06-04. E = -746.810024 Ha
C    -2.38333  -3.02999   0.41725
N    -1.61887  -1.82827   0.68442
C    -1.99831  -0.62239   0.21196
O    -3.10016  -0.43189  -0.32877
C    -1.06921   0.50820   0.39260
C     0.26987   0.64883   0.27416
C     1.33729  -0.28660  -0.08631
C     2.63104  -0.12588   0.44867
C     3.65617  -1.01092   0.11123
C     3.41371  -2.06320  -0.77708
C     2.13815  -2.22279  -1.33024
C     1.10966  -1.34437  -0.99089
C     0.49165   2.18397   0.42131
C    -0.06460   2.82443  -0.86990
C    -1.38986   2.67936  -0.77611
C    -1.61085   1.94964   0.56626
O    -0.54895   2.51342   1.35355
H    -2.29717  -3.34581  -0.63704
H    -2.01363  -3.84061   1.05768
H    -3.44742  -2.86246   0.63588
H    -0.67530  -1.92615   1.04412
H     2.82936   0.68933   1.14707
H     4.65058  -0.87663   0.54321
H     4.21814  -2.75217  -1.04475
H     1.94574  -3.03175  -2.03882
H     0.12621  -1.46168  -1.44828
H     1.47885   2.51093   0.76271
H     0.54141   3.22927  -1.67952
H    -2.17535   2.93208  -1.48728
H    -2.58981   2.04892   1.04574
