44
Generated by autodE on: 2022-06-04. E = -1237.905220 Ha. Imaginary frequency = -244.1 cm-1
C    -2.90115  -2.75565   1.74038
N    -1.94803  -2.10772   0.86005
C    -2.13907  -0.85255   0.42390
O    -3.17367  -0.22153   0.67955
C    -1.09802  -0.27115  -0.48517
C    -1.66655   0.21079  -1.86485
C    -0.97555   1.50255  -2.29739
C     0.27745   1.13760  -2.58536
C     0.32895  -0.36041  -2.31264
O    -1.00354  -0.75440  -2.70290
C     0.22941  -0.61905  -0.76319
C     1.17566  -1.50212  -0.06023
C     2.24757  -2.09390  -0.75990
C     3.16046  -2.92890  -0.11276
C     3.03966  -3.18596   1.25371
C     1.99662  -2.58871   1.97086
C     1.08355  -1.75691   1.32837
C     1.24539   1.39610   0.40359
C     2.47897   1.77754  -0.29510
C     2.55485   3.10330  -0.99598
O     3.42268   0.99290  -0.24015
O     0.20031   2.17619   0.30472
C    -0.98490   1.82780   0.84079
C    -1.01989   1.17596   2.10214
N    -1.02064   0.62329   3.12734
C    -2.08599   2.62777   0.44015
N    -2.99497   3.26868   0.09520
H    -3.86726  -2.91870   1.23670
H    -2.49261  -3.72559   2.04856
H    -3.08217  -2.14061   2.63531
H    -1.09684  -2.59931   0.61168
H    -2.75589   0.16027  -1.94535
H    -1.42937   2.49155  -2.30219
H     1.12439   1.74474  -2.89718
H     1.08823  -0.93570  -2.84421
H     2.37975  -1.90960  -1.82433
H     3.97544  -3.37622  -0.68618
H     3.75582  -3.83704   1.75981
H     1.89668  -2.76415   3.04433
H     0.30275  -1.28490   1.92202
H     1.29473   0.67269   1.21611
H     2.96050   3.83423  -0.27438
H     3.25419   3.03320  -1.84007
H     1.57589   3.46984  -1.32737
