48
Generated by autodE on: 2022-06-01. E = -999.914011 Ha
C     4.77424  -0.55485   2.12138
N     3.46565  -0.60078   1.49898
C     3.15606   0.15244   0.43039
O     3.99344   0.86206  -0.11878
C     1.76097   0.04572  -0.07312
C     0.62948   0.08631   0.65197
C     0.46123   0.27527   2.12504
C    -0.58364  -0.09232  -0.26451
C    -1.44377  -1.23481   0.30537
C    -1.19914  -2.56024  -0.07421
C    -1.91210  -3.61465   0.50454
C    -2.88084  -3.35821   1.47930
C    -3.12825  -2.03813   1.86998
C    -2.41526  -0.98681   1.28783
C    -1.39866   1.19964  -0.43040
C    -0.89624   2.45341  -0.05544
C    -1.62260   3.62158  -0.31083
C    -2.86185   3.55516  -0.95257
C    -3.37035   2.30955  -1.33664
C    -2.64687   1.14479  -1.07293
N     0.03974  -0.46119  -1.55348
C     1.48023  -0.11653  -1.56001
C     1.74098   1.18167  -2.34439
C     2.30000  -1.26531  -2.16270
H     4.85935  -1.38316   2.83563
H     5.56486  -0.65506   1.36319
H     4.93913   0.39420   2.65872
H     2.73703  -1.16148   1.92627
H     1.37056   0.67148   2.59485
H    -0.36863   0.96665   2.33589
H     0.20684  -0.67787   2.61721
H    -0.44269  -2.75267  -0.83515
H    -1.70904  -4.64196   0.19129
H    -3.44012  -4.18069   1.93177
H    -3.88239  -1.82406   2.63142
H    -2.61988   0.03784   1.60209
H     0.07621   2.52714   0.43364
H    -1.21400   4.58818  -0.00606
H    -3.42869   4.46745  -1.15301
H    -4.33739   2.24386  -1.84141
H    -3.05727   0.17748  -1.37079
H    -0.44142  -0.00047  -2.32171
H     2.80559   1.45004  -2.32497
H     1.16428   2.01599  -1.91925
H     1.43540   1.04851  -3.39549
H     1.99930  -1.43865  -3.20802
H     2.13819  -2.19529  -1.59666
H     3.37575  -1.03065  -2.15174
