34
Generated by autodE on: 2022-06-01. E = -674.978327 Ha
C     2.65295   1.21615  -1.19145
C     2.72878   0.14602  -0.17031
C     4.04100  -0.25009   0.41576
N     1.63909  -0.46692   0.26430
C     0.28870  -0.22036   0.05065
C    -0.19927   1.15130  -0.03344
C    -1.33396   1.49012  -0.81507
C    -1.82591   2.79277  -0.86195
C    -1.20434   3.82082  -0.13989
C    -0.07868   3.51247   0.63204
C     0.41495   2.20862   0.68625
C    -0.56138  -1.39573   0.09872
C    -1.94554  -1.33085   0.42356
C    -2.72632  -2.47822   0.52032
C    -2.17325  -3.75088   0.30982
C    -0.81486  -3.84268  -0.00801
C    -0.02735  -2.69592  -0.12471
H     2.44897   2.20928  -0.74594
H     3.60684   1.28307  -1.73446
H     1.82913   1.02191  -1.89761
H     4.79333  -0.39288  -0.37700
H     3.95893  -1.17389   1.00988
H     4.42977   0.54327   1.08149
H     1.83197  -1.29474   0.83686
H    -1.82135   0.71536  -1.40950
H    -2.69904   3.01273  -1.48249
H    -1.58813   4.84263  -0.18242
H     0.41978   4.29636   1.20889
H     1.27912   1.99501   1.31884
H    -2.40437  -0.36247   0.62554
H    -3.78446  -2.38086   0.77916
H    -2.79164  -4.64793   0.38694
H    -0.36064  -4.82085  -0.18949
H     1.01616  -2.80869  -0.42676
