48
Generated by autodE on: 2022-06-01. E = -999.810037 Ha. Imaginary frequency = -294.1 cm-1
C     5.48717   0.22733   0.58611
N     4.11804   0.01186   1.00821
C     3.11969   0.85389   0.63232
O     3.36577   1.91618   0.02032
C     1.77645   0.46530   0.94840
C     0.61994   0.48129   1.42237
C    -0.28918   0.79034   2.53982
C    -0.74572  -0.10473  -0.37442
C    -1.43764  -1.38569  -0.09291
C    -1.38836  -2.44889  -1.01933
C    -2.04364  -3.65693  -0.77326
C    -2.78552  -3.83444   0.39818
C    -2.86935  -2.77990   1.31479
C    -2.20891  -1.57505   1.07311
C    -1.51887   1.15729  -0.43013
C    -0.84531   2.39016  -0.60401
C    -1.54572   3.59486  -0.66055
C    -2.93841   3.61415  -0.52589
C    -3.61872   2.40624  -0.34112
C    -2.92246   1.19681  -0.29743
N     0.33102  -0.12850  -1.24839
C     1.50214  -0.76899  -1.09734
C     2.56399  -0.44102  -2.10007
C     1.61902  -2.08085  -0.39197
H     5.87254   1.18984   0.95706
H     6.11367  -0.57734   0.99124
H     5.58330   0.22869  -0.51303
H     3.86187  -0.87813   1.42073
H    -0.60536  -0.13017   3.05543
H     0.21283   1.43153   3.28366
H    -1.19925   1.30611   2.19869
H    -0.83417  -2.31948  -1.94983
H    -1.98120  -4.46190  -1.51009
H    -3.30022  -4.77853   0.59124
H    -3.45338  -2.89671   2.23127
H    -2.29247  -0.76941   1.80036
H     0.24541   2.41031  -0.65629
H    -0.99511   4.52963  -0.79341
H    -3.48557   4.55905  -0.55972
H    -4.70706   2.40139  -0.24001
H    -3.48020   0.26871  -0.17259
H     0.42111   0.71370  -1.81623
H     3.55901  -0.62448  -1.67133
H     2.50554   0.60866  -2.42373
H     2.47194  -1.08818  -2.99135
H     1.37630  -2.90525  -1.08851
H     0.95470  -2.16237   0.47318
H     2.65828  -2.22389  -0.06416
