48
Generated by autodE on: 2022-10-22. E = -3904.277144 Ha
C     3.11680  -2.74561   0.25943
O     2.23942  -1.62407   0.07979
C     1.56784  -1.54911  -1.06339
O     1.66244  -2.35731  -1.95804
C     0.76814  -0.22261  -1.13731
C    -0.25788  -0.19815  -2.26213
C    -0.51762   1.02287  -2.89776
C    -1.49783   1.11320  -3.88742
C    -2.23102  -0.01896  -4.25353
C    -1.97547  -1.23881  -3.62188
C    -0.99784  -1.33024  -2.62956
O     1.76814   0.78013  -1.40339
C     1.97023   1.61371  -0.28089
C     3.31641   1.38832   0.29673
N     4.36883   1.20660   0.74762
C     0.87903   1.23813   0.70124
C     0.20390   0.18105   0.23306
C    -0.88417  -0.63815   0.86181
Br   -2.68292   0.20007   0.07452
O    -0.73002  -1.90045   0.36718
C    -1.64189  -2.93042   0.73516
C    -1.10251  -0.54697   2.36681
C     0.05156  -1.06312   3.23720
C     1.39737  -0.33775   3.13524
C     1.37003   1.19041   3.22712
C     0.80842   1.95896   2.02494
F     1.52879   3.12990   1.88879
F    -0.47982   2.37928   2.25536
H     3.88907  -2.75393  -0.52262
H     3.57340  -2.61287   1.24649
H     2.54295  -3.68242   0.22510
H     0.04732   1.91003  -2.61039
H    -1.68948   2.07305  -4.37308
H    -2.99823   0.04936  -5.02867
H    -2.54493  -2.12936  -3.89836
H    -0.82531  -2.28373  -2.13647
H     1.91319   2.67162  -0.58806
H    -1.39651  -3.78997   0.09941
H    -1.52981  -3.21370   1.79166
H    -2.67622  -2.60842   0.53865
H    -1.34718   0.48717   2.62019
H    -2.00434  -1.12804   2.60106
H    -0.30808  -0.99882   4.27759
H     0.21708  -2.13293   3.03216
H     1.92074  -0.63271   2.21567
H     2.03000  -0.69491   3.96274
H     0.81342   1.53687   4.11269
H     2.40583   1.54331   3.33374
