24
Generated by autodE on: 2022-10-26. E = -705.238956 Ha
C     1.85753  -1.67388   2.60167
O     1.08565  -0.68159   1.90831
C     0.70117  -0.96647   0.66417
O     0.85242  -2.05210   0.13562
C     0.01509   0.18571   0.03334
O     0.34772   1.41686   0.32061
C     1.31852   2.06895   0.92783
C     2.49981   1.50122   1.41437
N     3.53339   1.11109   1.80553
C    -1.09365   0.04368  -0.89712
C    -1.58351   1.17881  -1.58557
C    -2.65448   1.06653  -2.46659
C    -3.26146  -0.17565  -2.68999
C    -2.78557  -1.30530  -2.01654
C    -1.71665  -1.20435  -1.12818
H     2.77389  -1.90264   2.03978
H     1.26514  -2.59003   2.73436
H     2.10756  -1.23521   3.57369
H     1.18827   3.15010   0.90239
H    -1.11068   2.14865  -1.42726
H    -3.01578   1.95461  -2.99015
H    -4.09874  -0.26149  -3.38609
H    -3.25441  -2.27816  -2.18079
H    -1.36395  -2.09406  -0.60962
