24
Generated by autodE on: 2022-10-22. E = -3198.885476 Ha
C    -0.40351   3.16404  -0.86660
O    -1.31065   2.16992  -0.39714
C    -0.85358   0.89188  -0.31757
Br   -0.60751   0.13581  -2.26743
C     0.44408   0.67854   0.30475
C     1.28513   0.13694   0.98900
C     1.74490  -0.85878   1.96043
F     3.02534  -1.27346   1.71553
F     1.77225  -0.29487   3.21386
C     0.79374  -2.05018   1.94219
C    -0.70457  -1.70231   2.03930
C    -1.48117  -1.43672   0.71829
C    -1.89111   0.00912   0.38830
H    -0.14738   2.98110  -1.92239
H     0.51814   3.17401  -0.26178
H    -0.91863   4.12759  -0.77090
H     1.09793  -2.68062   2.79301
H     1.00221  -2.61413   1.01994
H    -1.18104  -2.56478   2.52753
H    -0.83882  -0.86043   2.73881
H    -2.42308  -2.00141   0.77890
H    -0.93652  -1.86904  -0.13670
H    -2.79392   0.02039  -0.23949
H    -2.13911   0.54985   1.31747
