48
Generated by autodE on: 2022-10-22. E = -3904.134630 Ha. Imaginary frequency = -75.1 cm-1
C     3.09464  -2.03693   0.44892
O     2.35262  -0.98634  -0.17769
C     1.57126  -1.29307  -1.20504
O     1.45119  -2.42033  -1.64886
C     0.85551  -0.09796  -1.72785
C    -0.33940  -0.17826  -2.56370
C    -0.85327   0.99930  -3.15317
C    -2.02388   0.96742  -3.90276
C    -2.71231  -0.23736  -4.09011
C    -2.21008  -1.40946  -3.51971
C    -1.03995  -1.38774  -2.76378
O     1.32637   1.11216  -1.57532
C     2.26299   1.76672  -0.92581
C     3.52435   1.25932  -0.55896
N     4.62597   0.97120  -0.29340
C     0.69723   1.28334   1.27112
C    -0.13313   0.48085   0.87497
C    -1.14856  -0.54622   1.02978
Br   -2.83625   0.17059   0.01022
O    -0.71650  -1.70857   0.46185
C    -1.54128  -2.86644   0.54868
C    -1.56037  -0.60586   2.51037
C    -0.48508  -1.14223   3.47503
C     0.90730  -0.48242   3.55184
C     0.96324   1.05519   3.69479
C     1.46869   1.75422   2.43456
F     2.80393   1.47743   2.26310
F     1.39180   3.11318   2.57801
H     3.75092  -2.53251  -0.28046
H     3.68910  -1.55311   1.23131
H     2.40451  -2.77145   0.88760
H    -0.32917   1.94454  -3.01162
H    -2.40422   1.89050  -4.34643
H    -3.63238  -0.25985  -4.67868
H    -2.73949  -2.35534  -3.65572
H    -0.67252  -2.30764  -2.31932
H     2.15342   2.84811  -1.01657
H    -1.01669  -3.64958  -0.01215
H    -1.68010  -3.19372   1.58976
H    -2.52057  -2.67064   0.08486
H    -1.86108   0.41113   2.79648
H    -2.45750  -1.23518   2.60422
H    -0.94838  -1.09157   4.47465
H    -0.32710  -2.21341   3.27047
H     1.51072  -0.78929   2.68413
H     1.41134  -0.92865   4.42229
H    -0.02681   1.47815   3.92283
H     1.64407   1.35819   4.50507
