33
Generated by autodE on: 2022-06-16. E = -615.997389 Ha
C    -3.23761   0.99455  -0.63884
C    -2.38511  -0.25479  -0.37549
C    -3.29622  -1.41370   0.01179
N    -1.71857  -0.57214  -1.68249
N    -0.55283  -0.16041  -1.73339
C    -0.15044   0.52141  -0.47459
C     1.31016   0.35930  -0.15806
C     2.02542  -0.78119  -0.55203
C     3.36920  -0.93435  -0.20000
C     4.01516   0.04841   0.55697
C     3.31038   1.18991   0.95270
C     1.96922   1.34512   0.59218
C    -1.17185   0.00854   0.57922
C    -1.44056   1.04248   1.67202
C    -0.68055  -1.28864   1.23702
H    -2.62641   1.87187  -0.89554
H    -3.83859   1.23797   0.24920
H    -3.92770   0.80237  -1.47396
H    -3.72401  -1.24166   1.01117
H    -4.12828  -1.49514  -0.70399
H    -2.76394  -2.37433   0.02372
H    -0.34109   1.59254  -0.65654
H     1.52594  -1.55309  -1.14013
H     3.91398  -1.82716  -0.51681
H     5.06518  -0.07281   0.83384
H     3.80881   1.96615   1.53845
H     1.42326   2.24285   0.89292
H    -1.69523   2.03004   1.26306
H    -2.26545   0.71354   2.32400
H    -0.54727   1.16364   2.30445
H     0.24040  -1.09958   1.80700
H    -1.43266  -1.67451   1.93996
H    -0.46396  -2.07732   0.50180
