15
Generated by autodE on: 2022-06-16. E = -379.978867 Ha
N     3.34206   0.54971  -0.36077
N     2.45495  -0.14970  -0.19335
C     1.42421  -0.91794  -0.00466
C     0.06940  -0.38479   0.04334
C    -0.21822   0.98798  -0.11123
C    -1.53463   1.44531  -0.05541
C    -2.59210   0.55207   0.15393
C    -2.31556  -0.81116   0.30753
C    -1.00217  -1.27793   0.25356
H     1.64266  -1.98041   0.11463
H     0.59336   1.70083  -0.27563
H    -1.73659   2.51248  -0.17701
H    -3.62120   0.91547   0.19698
H    -3.13110  -1.52005   0.47130
H    -0.79328  -2.34365   0.37464
