33
Generated by autodE on: 2022-06-16. E = -615.920508 Ha. Imaginary frequency = -458.8 cm-1
C    -3.70439   0.39005  -0.34945
C    -2.41727  -0.33816  -0.03526
C    -2.46811  -1.83332  -0.24943
N    -1.52707   0.11236  -2.01631
N    -0.55001   0.66455  -1.70705
C     0.12047   1.04909  -0.59471
C     1.41057   0.43830  -0.29136
C     1.79063  -0.81437  -0.81518
C     2.98358  -1.41543  -0.41598
C     3.81715  -0.78715   0.51782
C     3.44811   0.45578   1.04381
C     2.26048   1.06705   0.63983
C    -1.48928   0.21373   0.86308
C    -1.78014   1.54147   1.53353
C    -0.61410  -0.70507   1.68693
H    -3.55622   1.46819  -0.50586
H    -4.43116   0.28113   0.47873
H    -4.18023  -0.01756  -1.25486
H    -2.97082  -2.34006   0.59721
H    -3.03441  -2.08309  -1.16012
H    -1.46806  -2.28051  -0.34333
H     0.01097   2.11834  -0.39053
H     1.14462  -1.31697  -1.53879
H     3.26549  -2.38464  -0.83472
H     4.74983  -1.26248   0.82998
H     4.09346   0.95601   1.77006
H     1.97540   2.03879   1.05037
H    -2.17614   2.29569   0.83918
H    -2.52967   1.41639   2.33867
H    -0.87297   1.95725   1.99911
H     0.19656  -0.15147   2.18250
H    -1.21231  -1.19112   2.48118
H    -0.15101  -1.50584   1.09514
