39
Generated by autodE on: 2022-06-18. E = -972.465320 Ha
C     3.19821   2.86469  -0.59793
N     2.09330   1.97842  -0.29662
C     2.05360   0.70121  -0.68183
O     2.96374   0.10807  -1.27410
C     0.75806  -0.05511  -0.35585
C     1.19533  -1.39910   0.25762
O     0.98465  -2.49788  -0.20652
O     1.81577  -1.18947   1.41903
C     2.17862  -2.34768   2.18710
N    -0.11997   0.67316   0.56551
C    -1.51271   0.31542   0.31452
C    -2.30818   1.54167   0.12735
N    -2.92201   2.51719  -0.00945
C    -2.09311  -0.52042   1.49897
C    -3.55973  -0.81277   1.51956
O    -1.31624  -0.94637   2.32885
C    -1.49408  -0.58617  -0.98325
C    -2.69527  -0.46125  -1.90760
C    -0.11740  -0.26742  -1.61166
C    -0.11470   0.93188  -2.55864
H     3.27447   3.63610   0.17990
H     4.13344   2.29013  -0.62653
H     3.06751   3.36204  -1.57380
H     1.24372   2.33769   0.13310
H     2.85750  -2.99258   1.61174
H     2.68083  -1.96955   3.08455
H     1.27587  -2.91130   2.46338
H     0.11936   0.48576   1.53949
H    -3.84114  -1.22665   2.49604
H    -3.77724  -1.56100   0.73872
H    -4.15521   0.08201   1.28913
H    -1.44149  -1.62132  -0.61689
H    -2.82939   0.56406  -2.27945
H    -3.62326  -0.76086  -1.39993
H    -2.55964  -1.12434  -2.77535
H     0.24440  -1.15146  -2.15238
H    -0.77756   0.74416  -3.41460
H    -0.44945   1.85678  -2.06531
H     0.89458   1.10280  -2.96069
