12
Generated by autodE on: 2022-06-18. E = -157.299005 Ha
C    -1.58461  -0.55742  -0.05042
C    -0.67353   0.62370   0.10257
C     0.66871   0.63242   0.07795
C     1.58881  -0.53712  -0.10687
H    -1.04291  -1.50409  -0.18845
H    -2.25926  -0.42264  -0.91443
H    -2.23807  -0.66522   0.83331
H    -1.17953   1.58636   0.24993
H     1.16729   1.60141   0.20804
H     2.26534  -0.64413   0.75954
H     1.05440  -1.48879  -0.23860
H     2.24002  -0.38826  -0.98629
