27
Generated by autodE on: 2022-06-18. E = -815.112827 Ha
C    -3.31619   3.10729  -0.46810
N    -2.61866   1.85315  -0.27512
C    -1.28562   1.75005  -0.23339
O    -0.49681   2.70228  -0.35539
C    -0.71234   0.37800  -0.03192
N     0.60930   0.39232  -0.10499
C     1.65785  -0.44570  -0.11173
C     1.59675  -1.85747  -0.14497
N     1.67607  -3.01850  -0.22220
C     2.96186   0.24919  -0.20739
C     4.20488  -0.58685  -0.25475
O     2.97894   1.47814  -0.24611
C    -1.52303  -0.80213   0.30488
O    -2.72697  -0.88423   0.10809
O    -0.80675  -1.74757   0.89777
C    -1.45971  -2.98540   1.21688
H    -3.97449   3.32251   0.38808
H    -3.93472   3.07204  -1.37840
H    -2.58480   3.91740  -0.56643
H    -3.14870   0.98573  -0.19109
H     0.94249   1.38056  -0.22150
H     5.08671   0.06464  -0.28478
H     4.19030  -1.23576  -1.14539
H     4.25477  -1.24845   0.62475
H    -0.68227  -3.63228   1.63739
H    -1.88245  -3.43650   0.30821
H    -2.25812  -2.81310   1.95219
