27
Generated by autodE on: 2022-07-27. E = -815.111881 Ha
C     2.24033   2.28808  -2.36990
N     1.79862   1.05920  -1.73916
C     0.94341   1.07895  -0.70526
O     0.42065   2.11524  -0.27612
C     0.61585  -0.22447  -0.05496
N    -0.57218  -0.43129   0.48720
C    -1.77879   0.16266   0.48408
C    -2.14947   1.24218  -0.34635
N    -2.58088   2.08685  -1.02570
C    -2.76673  -0.51732   1.34464
C    -4.16154   0.02940   1.38699
O    -2.41243  -1.50558   1.98778
C     1.56661  -1.32079   0.23904
O     1.25493  -2.29499   0.90506
O     2.77122  -1.13292  -0.29099
C     3.75456  -2.15481  -0.05460
H     2.87727   2.88504  -1.69598
H     2.81327   2.03790  -3.27071
H     1.37550   2.90477  -2.65432
H     2.27480   0.18969  -1.95754
H    -0.61323  -1.29373   1.07026
H    -4.76470  -0.54907   2.09734
H    -4.14663   1.09094   1.68120
H    -4.61640  -0.02066   0.38436
H     4.66005  -1.82180  -0.57345
H     3.94402  -2.25506   1.02334
H     3.40924  -3.11570  -0.46131
