39
Generated by autodE on: 2022-06-18. E = -972.394871 Ha. Imaginary frequency = -394.0 cm-1
C     2.67898   2.37906  -1.98169
N     2.35908   1.29096  -1.08068
C     1.15495   1.21999  -0.49011
O     0.31908   2.12665  -0.60067
C     0.82126   0.00674   0.32100
C     1.81543  -1.00853   0.77528
O     1.64380  -1.70092   1.76358
O     2.85879  -1.15302  -0.04203
C     3.81479  -2.17684   0.28533
N    -0.22364   0.07865   1.19499
C    -1.52976   0.35207   0.90072
C    -2.03422   1.57377   0.37197
N    -2.64060   2.49900   0.00388
C    -2.48113  -0.45321   1.72527
C    -3.94985  -0.20025   1.56856
O    -2.03404  -1.32327   2.46674
C    -1.57037  -0.91329  -1.08052
C    -2.36115  -0.09074  -2.05186
C    -0.20635  -1.19498  -1.27639
C     0.50102  -0.81566  -2.54936
H     3.72035   2.27190  -2.30887
H     2.02462   2.37275  -2.86960
H     2.56088   3.35267  -1.48271
H     2.98081   0.49148  -1.01039
H     4.57427  -2.13570  -0.50300
H     4.26634  -1.97424   1.26623
H     3.32436  -3.15990   0.29663
H    -0.19789  -0.70297   1.86560
H    -4.51354  -0.97370   2.10459
H    -4.20168   0.79166   1.97738
H    -4.23217  -0.19165   0.50452
H    -2.13147  -1.64269  -0.49319
H    -1.85092   0.84777  -2.31293
H    -3.35831   0.15449  -1.66108
H    -2.50335  -0.65635  -2.99137
H     0.14949  -2.11110  -0.79731
H     0.13292  -1.44840  -3.37696
H     1.58439  -0.97369  -2.46987
H     0.31745   0.22895  -2.83852
