17
Generated by autodE on: 2022-06-18. E = -604.741445 Ha
C     3.88716   1.49658  -0.35116
O     2.51365   1.06566  -0.24686
C     2.31758  -0.20783   0.05222
O     3.16444  -1.05031   0.24794
C     0.89896  -0.51241   0.12629
N    -0.20310  -0.88288   0.20761
N    -1.35392  -1.38075   0.31812
C    -2.42557  -0.51702   0.11500
O    -3.57633  -0.89979   0.19261
O    -2.06270   0.74198  -0.16532
C    -3.12477   1.67976  -0.38609
H     3.84278   2.56304  -0.59570
H     4.40389   1.33919   0.60566
H     4.39641   0.93702  -1.14801
H    -3.73700   1.37207  -1.24616
H    -3.76008   1.75927   0.50785
H    -2.63904   2.64072  -0.59211
