22
Generated by autodE on: 2022-06-01. E = -662.345193 Ha
C    -4.52942   0.06963  -0.09456
N    -3.08237   0.00786  -0.06574
C    -2.34179   1.09893   0.20176
O    -2.81875   2.21650   0.44602
C    -0.87567   0.93881   0.20064
O    -0.39788  -0.22362  -0.05303
C     0.84347  -0.71338  -0.13811
C     0.89054  -2.08617  -0.44290
N     0.97550  -3.22491  -0.69439
C     2.01806   0.13778   0.06879
O     1.89313   1.35001   0.31641
N     3.22504  -0.46129  -0.02471
C     4.44920   0.29329   0.15634
H    -4.92396  -0.93670  -0.27744
H    -4.88601   0.74205  -0.89182
H    -4.92783   0.44085   0.86279
H    -2.61392  -0.87031  -0.26601
H    -0.21245   1.77752   0.40517
H     3.28639  -1.45409  -0.22584
H     5.30123  -0.38936   0.05469
H     4.54433   1.09254  -0.59625
H     4.48754   0.76141   1.15289
