13
Generated by autodE on: 2022-06-01. E = -3340.726068 Ha
Cl    0.45376   2.34340  -0.62380
C    -0.24929   1.05663   0.26000
C     0.05038  -0.24760   0.27747
Br    1.35518  -1.18683  -0.66870
C    -1.07699  -0.89758   1.11873
C    -2.37756  -0.79749   0.28492
C    -2.67415   0.50461   0.26864
C    -1.54998   1.17737   1.09269
O    -1.29647   0.15590   2.07325
H    -0.84239  -1.85524   1.59484
H    -2.87102  -1.63569  -0.20524
H    -3.47894   1.03463  -0.23886
H    -1.75007   2.15642   1.54007
