20
Generated by autodE on: 2022-10-22. E = -797.258628 Ha
C    -4.57508  -0.78506   0.86093
O    -3.36081  -0.14537   0.41463
C    -2.23619  -0.78775   0.64979
O    -2.09092  -1.85205   1.20075
C    -1.06868  -0.01043   0.12331
O    -1.12570   1.11712  -0.47804
C     0.31788   1.51254  -0.83705
O     0.50899   2.54360  -1.41285
C     1.01440   0.41607  -0.31486
C     2.43571   0.15338  -0.32548
O     3.24814   0.91765  -0.82109
O     2.74852  -1.00894   0.26182
C     4.14162  -1.35202   0.29201
O     0.12279  -0.48165   0.25789
H    -4.69381  -1.75185   0.35242
H    -4.53879  -0.93542   1.94869
H    -5.38647  -0.10199   0.58979
H     4.54068  -1.43572  -0.72925
H     4.71387  -0.59459   0.84700
H     4.20115  -2.32024   0.80209
