28
Generated by autodE on: 2022-10-22. E = -1100.211628 Ha
C    -1.41378   2.91353  -0.34864
O    -1.64696   2.04211  -1.44343
C    -1.15298   0.72434  -1.33463
O    -1.09457   0.19753  -2.63006
C    -0.17587   0.83174  -3.51300
C     0.16173   0.62145  -0.64980
C     1.00762   0.13119   0.06716
C     1.51767  -0.79553   1.06334
F     2.82631  -1.13886   0.84819
Cl    1.46481   0.03285   2.70157
C     0.65053  -2.05497   1.07874
C    -0.87132  -1.83220   1.13335
C    -1.62978  -1.59570  -0.20257
C    -2.11701  -0.16914  -0.52295
H    -1.81921   2.51383   0.59674
H    -1.92656   3.85672  -0.58154
H    -0.33689   3.11540  -0.21315
H    -0.43746   1.88837  -3.67712
H     0.85569   0.77383  -3.12331
H    -0.22867   0.29021  -4.46668
H     0.92116  -2.61026   0.16532
H     0.98363  -2.65521   1.93900
H    -1.28613  -2.74352   1.58862
H    -1.09466  -1.02119   1.84635
H    -2.53194  -2.22478  -0.17280
H    -1.03641  -1.97647  -1.04999
H    -3.03302  -0.20988  -1.13286
H    -2.36675   0.36350   0.40698
