42
Generated by autodE on: 2022-06-20. E = -1137.143144 Ha
C    -4.15271   1.83587  -0.10121
N    -3.01072   1.01162   0.24370
C    -2.24616   0.44979  -0.69113
O    -2.45647   0.53249  -1.90760
C    -1.04234  -0.37535  -0.17076
C    -1.51794  -1.63398   0.60761
C    -2.72799  -2.34175   0.07384
O    -0.88488  -2.04972   1.55909
N    -0.34469  -0.93165  -1.33842
C     1.09618  -0.77445  -1.22666
C     1.64325   0.21245  -2.18038
N     2.05233   0.96576  -2.96035
C     1.78289  -2.06083  -1.47819
N     2.29846  -3.08456  -1.65066
C     1.32040  -0.33146   0.29081
N     2.53247   0.36428   0.59062
C     3.77303  -0.39038   0.49583
C     2.56157   1.75089   0.44306
C     1.47015   2.50584   0.23534
C     0.11064   1.90460   0.04011
C     0.02268   0.45640   0.60264
C    -0.27352   0.55807   2.10597
N     0.77249   0.52491   2.93391
O    -1.43326   0.73888   2.50814
H    -4.83654   1.29151  -0.76970
H    -3.84284   2.76280  -0.61187
H    -4.69006   2.10097   0.81772
H    -2.65734   0.97177   1.21026
H    -2.81560  -2.24314  -1.01610
H    -2.70343  -3.39859   0.36982
H    -3.61974  -1.87318   0.52228
H    -0.75103  -0.55627  -2.19842
H     1.30216  -1.26992   0.85937
H     4.56917   0.14185   1.03508
H     3.63718  -1.37846   0.95917
H     4.10147  -0.53660  -0.54979
H     3.55210   2.19308   0.57054
H     1.57622   3.59063   0.18695
H    -0.66139   2.51870   0.52499
H    -0.15613   1.89665  -1.03161
H     1.72105   0.42220   2.57981
H     0.61603   0.65602   3.92909
