22
Generated by autodE on: 2022-06-20. E = -679.394363 Ha
C    -2.72167  -0.15433  -0.09521
N    -2.02039   1.07111  -0.43297
C    -0.74130   1.35617  -0.16539
O    -0.15014   2.36455  -0.56077
C     0.01726   0.41021   0.73204
N     0.74258  -0.58918   0.28443
C     0.90274  -1.15063  -0.94399
C     1.79513  -2.23875  -1.07487
N     2.52768  -3.13841  -1.20024
C     0.20329  -0.68839  -2.08023
N    -0.36643  -0.33044  -3.03337
C     0.16437   0.65599   2.19077
C    -0.60666   1.79388   2.77840
O     0.89516  -0.08537   2.84066
H    -3.73564   0.08080   0.25695
H    -2.79424  -0.82328  -0.96751
H    -2.19262  -0.68248   0.70892
H    -2.48532   1.72854  -1.05781
H     1.28553  -1.02570   1.05229
H    -0.40594   1.87112   3.85377
H    -1.68380   1.63705   2.60410
H    -0.33124   2.73160   2.27015
