25
Generated by autodE on: 2022-06-06. E = -3237.023073 Ha
C     2.94095  -1.01845   0.95359
C     2.24161  -1.04153  -0.37172
O     2.67437  -1.61142  -1.35113
C     0.88043  -0.31404  -0.46204
Br    1.44735   1.60749  -0.82640
C     0.08104  -0.30351   0.73808
C    -0.89043  -0.33784   1.46237
C    -2.33276  -0.48305   1.68416
F    -2.78733   0.32201   2.69224
F    -2.60287  -1.76945   2.08664
C    -3.07551  -0.17273   0.38928
C    -2.55693  -0.90227  -0.86538
C    -1.42762  -0.23126  -1.69809
C    -0.00598  -0.81797  -1.61348
H     3.99004  -1.31591   0.83057
H     2.86878  -0.03362   1.43650
H     2.43630  -1.74339   1.61548
H    -4.12633  -0.44279   0.58108
H    -3.03422   0.91844   0.24867
H    -2.27108  -1.93273  -0.59572
H    -3.42722  -1.00656  -1.52954
H    -1.39529   0.85112  -1.48979
H    -1.71648  -0.31521  -2.75608
H     0.54150  -0.63832  -2.54894
H    -0.06253  -1.91314  -1.49167
