26
Generated by autodE on: 2022-06-06. E = -685.640289 Ha
C     2.31357  -1.94661  -1.13017
O     1.20312  -1.05947  -0.99467
C     1.35786  -0.01615  -0.13606
O     2.45055   0.23504   0.36208
C     0.14192   0.74028   0.06938
C     0.05281   2.00735   0.74807
C     1.30359   2.66822   1.28134
O    -1.04967   2.56487   0.91051
N    -1.07508   0.24054  -0.46880
C    -1.84655   1.08187  -1.40269
C    -1.49338  -0.98053  -0.24049
C    -2.63526  -1.60475  -0.96364
C    -0.81425  -1.75492   0.75473
N    -0.34727  -2.43322   1.57546
H     2.57259  -2.39629  -0.15972
H     3.19271  -1.42260  -1.53296
H     1.99249  -2.72874  -1.82885
H     2.07101   2.77574   0.50136
H     1.75152   2.06438   2.08457
H     1.02531   3.65469   1.67646
H    -1.86434   0.58234  -2.38223
H    -1.35402   2.05076  -1.49292
H    -2.87453   1.20820  -1.04042
H    -2.42571  -1.62855  -2.04624
H    -3.55117  -1.01089  -0.81463
H    -2.80435  -2.62612  -0.60537
