26
Generated by autodE on: 2022-07-27. E = -685.637280 Ha
C    -2.84401  -1.67039   1.64333
O    -1.85340  -0.96641   0.89172
C    -0.59842  -0.94298   1.41266
O    -0.35560  -1.41790   2.51327
C     0.34105  -0.27898   0.52240
C     1.68441   0.06245   0.94375
C     2.72807   0.42059  -0.10014
O     2.04382  -0.00809   2.12778
N    -0.09106  -0.01068  -0.78688
C    -0.56301  -1.12930  -1.63503
C     0.00998   1.19624  -1.31109
C     0.27185   2.43589  -0.53246
C    -0.19213   1.33704  -2.72019
N    -0.35088   1.51231  -3.85915
H    -3.76830  -1.61250   1.05575
H    -2.99536  -1.20173   2.62712
H    -2.55531  -2.72250   1.78688
H     3.62958  -0.16292   0.13897
H     2.43949   0.22152  -1.14006
H     2.99976   1.48381  -0.00335
H    -0.66401  -2.02343  -1.01688
H    -1.52363  -0.87572  -2.09976
H     0.19501  -1.31461  -2.40953
H     0.04373   2.26863   0.52976
H    -0.34518   3.25057  -0.93992
H     1.32440   2.75059  -0.61774
