40
Generated by autodE on: 2022-05-31. E = -1167.812485 Ha
C    -3.78258  -1.10088  -2.33751
N    -2.68758  -0.49144  -1.60837
C    -2.00003  -1.16594  -0.67970
O    -2.22558  -2.33688  -0.37607
C    -0.87016  -0.36719   0.02149
C    -1.28757  -0.28555   1.50605
O    -1.48508  -1.26199   2.19427
O    -1.43339   0.96247   1.93197
C    -1.76592   1.13112   3.32011
N    -0.78493   0.98813  -0.52275
C     0.42949   1.30183  -0.75144
C     0.83536   2.66055  -1.25257
C    -0.24127   3.57051  -1.75416
O     2.01633   2.96485  -1.21443
C     1.44193   0.22070  -0.49635
F     2.23846   0.07736  -1.62255
C     2.32470   0.34919   0.79065
C     3.35652  -0.76361   0.67388
C     2.67319  -1.89188   0.90211
C     1.23984  -1.46581   1.17697
O     1.42790  -0.16641   1.78040
C     0.56939  -1.03706  -0.17045
C     0.61858  -2.09348  -1.26406
H    -3.46024  -2.04292  -2.80569
H    -4.11606  -0.40952  -3.12054
H    -4.63365  -1.32446  -1.67385
H    -2.46664   0.49136  -1.74097
H    -0.96470   0.71734   3.94904
H    -2.71577   0.62931   3.55174
H    -1.85526   2.21188   3.47698
H     0.19796   4.52093  -2.08199
H    -0.77782   3.09058  -2.58845
H    -0.98170   3.74730  -0.95866
H     2.66192   1.36257   1.02727
H     4.39612  -0.63537   0.37551
H     3.01860  -2.92371   0.84826
H     0.63470  -2.11947   1.80809
H     0.16312  -1.72255  -2.19371
H     0.08254  -2.99742  -0.95105
H     1.66152  -2.35742  -1.48239
