16
Generated by autodE on: 2022-05-31. E = -446.128262 Ha
C     2.44304   0.25961   0.47212
C     1.02753   0.20188   0.02722
C     0.27914  -0.78671  -0.46415
F     0.61140  -2.05455  -0.72563
C    -1.16991  -0.28135  -0.55571
C    -1.67733  -0.09779   0.89758
C    -0.95560   0.91754   1.38104
C    -0.02067   1.33126   0.21813
O    -0.89867   1.08817  -0.90631
H     2.99159   1.07462  -0.02993
H     2.96404  -0.68784   0.27020
H     2.49890   0.45991   1.55708
H    -1.82965  -0.78544  -1.27070
H    -2.42421  -0.72294   1.38564
H    -0.94930   1.35530   2.37876
H     0.36890   2.35570   0.22338
