24
Generated by autodE on: 2022-05-31. E = -721.580527 Ha
C    -1.72274   3.77835   0.37213
N    -1.64971   2.33636   0.26576
C    -0.47050   1.70230   0.14598
O     0.62050   2.29293   0.11824
C    -0.52591   0.21811   0.04602
N     0.64464  -0.37091  -0.06366
C     1.74625  -0.76337  -0.15336
C     3.10244  -1.22834  -0.27818
C     4.12961  -0.13162  -0.26556
O     3.34481  -2.42341  -0.38107
C    -1.73329  -0.60259   0.06320
O    -2.87054  -0.15596   0.16147
O    -1.46809  -1.91156  -0.03957
C    -2.59383  -2.80019  -0.02913
H    -2.77578   4.07420   0.45320
H    -1.28485   4.26997  -0.51161
H    -1.18379   4.14498   1.26078
H    -2.49258   1.76410   0.27851
H     4.72150  -0.19652  -1.19239
H     4.80897  -0.30053   0.58541
H     3.67231   0.86416  -0.18316
H    -3.26378  -2.58485  -0.87412
H    -2.17914  -3.81043  -0.12301
H    -3.15215  -2.70519   0.91347
