40
Generated by autodE on: 2022-05-31. E = -1167.707851 Ha. Imaginary frequency = -351.1 cm-1
C    -3.61674  -2.34975  -1.71649
N    -3.01013  -1.57388  -0.65515
C    -2.25858  -0.49060  -0.92644
O    -2.14424  -0.00930  -2.06356
C    -1.52096   0.10729   0.21965
C    -1.58708  -0.35448   1.60438
O    -2.06576  -1.43066   1.94952
O    -1.02247   0.50228   2.46008
C    -0.89607   0.07451   3.82234
N    -0.86657   1.22758  -0.05701
C     0.13766   1.70375  -0.50289
C     0.76107   2.97263  -0.91467
C     0.61552   3.29769  -2.36663
O     1.40287   3.61008  -0.09751
C     1.52531  -0.07117  -0.80738
F     1.78622   0.14638  -2.11569
C     2.57263   0.28145   0.26819
C     3.57039  -0.89895   0.33047
C     2.86817  -1.91609   0.84146
C     1.44730  -1.34594   1.07291
O     1.77035   0.01640   1.42545
C     0.84055  -1.16216  -0.33179
C     0.24931  -2.27563  -1.11975
H    -4.28345  -3.09984  -1.27295
H    -4.20478  -1.70324  -2.38415
H    -2.85883  -2.86931  -2.32793
H    -2.94729  -1.95305   0.28901
H    -0.27856  -0.83320   3.88445
H    -0.40623   0.90056   4.35030
H    -1.88497  -0.12301   4.26027
H     1.05421   4.28219  -2.57552
H     1.13635   2.51712  -2.94656
H    -0.44570   3.26480  -2.65980
H     2.98011   1.29783   0.26362
H     4.60224  -0.86749  -0.01708
H     3.16682  -2.94868   1.01885
H     0.82496  -1.83373   1.83085
H    -0.12901  -1.92108  -2.08803
H    -0.56879  -2.77252  -0.57879
H     1.02736  -3.03868  -1.31469
