46
Generated by autodE on: 2022-06-12. E = -1912.307568 Ha
C    -0.11019   2.38915   3.50854
C     0.76555   1.54786   2.62801
O     1.95511   1.40015   2.82526
C     0.06963   0.86216   1.46371
N    -1.18896   1.00164   1.35353
C    -1.76333   0.19737   0.30854
C    -2.93490   0.98316  -0.41766
C    -3.16548   2.39804   0.01007
O    -3.63250   0.39945  -1.21114
C    -2.60216  -0.96519   0.98651
C    -2.93077  -0.79234   2.43787
O    -3.04742  -1.85315   0.30397
C    -0.50942  -0.22388  -0.60741
C    -0.32132   0.88609  -1.71367
F    -1.36254   0.94549  -2.55115
F    -0.22091   2.09885  -1.14472
F     0.75741   0.69788  -2.47173
C    -0.63061  -1.57859  -1.36849
F    -0.79037  -2.63162  -0.57095
F    -1.65742  -1.56081  -2.22261
F     0.48320  -1.80580  -2.08883
C     0.72509  -0.10651   0.44592
C     2.05943   0.40038  -0.13536
C     2.38404   1.76424  -0.06756
C     3.57018   2.25061  -0.61689
C     4.46179   1.38177  -1.24911
C     4.14621   0.02475  -1.33246
C     2.95641  -0.46170  -0.78725
C     0.98550  -1.41999   1.25837
F     1.90036  -1.20301   2.20510
F     1.42730  -2.44877   0.52817
F    -0.13658  -1.83244   1.88263
H    -0.90450   1.77068   3.95392
H     0.50473   2.84064   4.29681
H    -0.60699   3.17297   2.91701
H    -2.23835   2.98602  -0.02151
H    -3.50844   2.39748   1.05719
H    -3.93411   2.84604  -0.63209
H    -3.49730   0.14471   2.56455
H    -2.02595  -0.70622   3.05378
H    -3.54056  -1.64344   2.76604
H     1.70684   2.47814   0.39674
H     3.79337   3.31740  -0.54771
H     5.39200   1.76074  -1.67826
H     4.82567  -0.66940  -1.83175
H     2.73847  -1.51984  -0.89739
