46
Generated by autodE on: 2022-06-12. E = -1912.252019 Ha. Imaginary frequency = -360.0 cm-1
C     1.39914   1.63691   3.47254
C     0.42177   0.55984   3.15725
O     0.01671  -0.28905   3.91900
C    -0.13797   0.49867   1.74680
N    -1.22710   0.86280   1.35818
C    -2.06454   0.95810   0.35503
C    -1.98541   2.24773  -0.43614
C    -2.85037   2.40626  -1.64679
O    -1.23062   3.12059  -0.04373
C    -3.29940   0.09260   0.38458
C    -3.67673  -0.50500   1.71027
O    -3.96928  -0.04578  -0.62186
C    -0.18736  -0.62200  -0.81276
C    -0.05687   0.06060  -2.16187
F    -1.14357  -0.06065  -2.94228
F     0.18082   1.38104  -2.07123
F     0.96830  -0.46259  -2.88053
C    -1.00324  -1.90305  -0.79245
F    -0.24207  -3.00354  -0.99870
F    -1.61274  -2.08982   0.39938
F    -1.97417  -1.94916  -1.71124
C     0.81216  -0.38352   0.17927
C     1.92435   0.61255  -0.13941
C     1.83233   1.97315   0.18240
C     2.87955   2.84834  -0.11321
C     4.03414   2.37979  -0.74294
C     4.12691   1.02853  -1.08626
C     3.08154   0.15219  -0.79057
C     1.39631  -1.55451   1.00744
F     2.05274  -2.43013   0.22949
F     2.28988  -1.08878   1.90325
F     0.49144  -2.24813   1.70668
H     0.97845   2.61608   3.19487
H     1.64447   1.60401   4.54179
H     2.30674   1.49014   2.86613
H    -2.53130   3.30569  -2.18861
H    -2.81167   1.52065  -2.29111
H    -3.89815   2.52214  -1.32438
H    -4.15941   0.28739   2.30866
H    -4.39355  -1.32041   1.55162
H    -2.80567  -0.85674   2.27869
H     0.92787   2.37617   0.63345
H     2.78303   3.90451   0.14761
H     4.85348   3.06444  -0.97329
H     5.01674   0.64861  -1.59314
H     3.16910  -0.89414  -1.07975
