52
Generated by autodE on: 2022-06-23. E = -1151.616402 Ha
C     2.61143   1.62240   4.28214
C     1.77728   1.71172   3.22642
C     0.74510   2.80371   3.12079
C     1.84601   0.71423   2.15260
C     1.08636   0.71810   1.04415
C     1.12022  -0.35462   0.00044
C     1.48035   0.16434  -1.43828
C     2.33705  -0.87187  -2.19252
C     2.19549   1.52174  -1.43773
C     0.09258   0.21556  -2.05731
C    -0.19844   0.88017  -3.38213
O     0.70847   1.22284  -4.15073
N    -1.50129   1.06318  -3.64368
C    -1.96483   1.63469  -4.89035
N    -0.84347  -0.38612  -1.43009
C    -0.30393  -0.99519  -0.20559
C    -0.20502  -2.51721  -0.41824
O     0.71837  -3.20501  -0.03539
O    -1.28105  -3.00407  -1.02915
C    -1.32594  -4.42641  -1.22798
C    -1.23345  -0.77632   0.98848
C    -2.25020   0.18369   0.94078
C    -3.02498   0.44979   2.07448
C    -2.79409  -0.24475   3.26488
C    -1.78376  -1.21135   3.31456
C    -1.00821  -1.47442   2.18434
H     2.57496   2.34506   5.10223
H     3.35226   0.81982   4.35130
H     0.89546   3.40712   2.21014
H     0.78334   3.47498   3.99027
H    -0.27039   2.37805   3.05159
H     2.56323  -0.10236   2.29781
H     0.36504   1.52435   0.88665
H     1.82691  -1.13189   0.31276
H     2.47382  -0.56939  -3.24033
H     3.32756  -0.94581  -1.71736
H     1.87699  -1.87078  -2.17932
H     1.55500   2.32468  -1.04574
H     3.09495   1.46761  -0.80653
H     2.50038   1.79521  -2.45611
H    -2.16425   0.67267  -2.98001
H    -1.83904   0.93400  -5.73309
H    -1.40058   2.54921  -5.12474
H    -3.02837   1.88603  -4.79709
H    -0.47617  -4.75381  -1.84373
H    -1.30109  -4.94761  -0.26024
H    -2.27092  -4.62780  -1.74510
H    -2.42696   0.73524   0.01703
H    -3.81172   1.20643   2.02481
H    -3.39801  -0.03461   4.15069
H    -1.59352  -1.75952   4.24028
H    -0.20865  -2.21588   2.23922
