23
Generated by autodE on: 2022-06-23. E = -351.521383 Ha
C     3.74298   0.50873  -0.17470
C     2.55965   0.11824   0.34783
C     2.48069  -0.54653   1.69847
C     1.32322   0.33989  -0.39938
C     0.07717  -0.00220   0.01431
C    -1.11855   0.24119  -0.76660
C    -2.39515  -0.06382  -0.42170
C    -2.79125  -0.72220   0.86931
C    -3.53754   0.25020  -1.34585
H     4.68311   0.35594   0.36260
H     3.79673   0.99153  -1.15538
H     2.02715  -1.54875   1.62222
H     1.84720   0.03326   2.39025
H     3.47746  -0.65202   2.14949
H     1.43477   0.82652  -1.37585
H    -0.04122  -0.48810   0.98657
H    -0.95915   0.72379  -1.73851
H    -3.50769  -0.08552   1.41794
H    -1.94488  -0.93546   1.53465
H    -3.31856  -1.67153   0.66814
H    -4.26787   0.91708  -0.85320
H    -3.20027   0.73013  -2.27625
H    -4.09265  -0.66855  -1.60785
