30
Generated by autodE on: 2022-07-27. E = -817.279931 Ha
C    -0.90516   2.56918  -1.50317
N    -1.65455   1.45570  -2.06735
C    -2.02443   0.30623  -1.45570
O    -2.87218  -0.45108  -1.94235
C    -1.32489  -0.04079  -0.18170
N     0.02076  -0.00689  -0.21042
N     0.85372  -0.23336   0.73810
C     2.20413  -0.23349   0.38484
C     3.11672  -0.11044   1.45257
C     4.48827  -0.08698   1.21224
C     4.97801  -0.19900  -0.09465
C     4.07949  -0.34561  -1.15758
C     2.70401  -0.37223  -0.92868
C    -2.05603  -0.49910   0.99426
O    -1.57350  -1.01356   1.99086
O    -3.37825  -0.25954   0.87005
C    -4.20753  -0.68807   1.95406
H    -1.31023   3.50788  -1.90460
H    -1.01203   2.59084  -0.41052
H     0.16840   2.52705  -1.75093
H    -2.08011   1.59539  -2.98102
H     0.40507   0.24315  -1.13683
H     2.72072  -0.02229   2.46597
H     5.18142   0.01770   2.05014
H     6.05364  -0.18621  -0.28309
H     4.45326  -0.45836  -2.17795
H     2.03569  -0.53521  -1.77770
H    -5.23470  -0.43363   1.66707
H    -3.93523  -0.16613   2.88361
H    -4.11715  -1.77338   2.10987
