30
Generated by autodE on: 2022-06-04. E = -817.295573 Ha
C    -3.26520   3.18920   1.60821
N    -2.84685   2.05591   0.81029
C    -1.59169   1.59043   0.85266
O    -0.70925   2.09591   1.58035
C    -1.24132   0.42761  -0.00345
N     0.05984   0.10159   0.15850
N     0.75799  -0.83097  -0.35693
C     2.11535  -0.85331  -0.01986
C     2.82358   0.19958   0.59882
C     4.18079   0.05324   0.87907
C     4.85631  -1.12731   0.54520
C     4.16214  -2.16727  -0.08293
C     2.80537  -2.03090  -0.36895
C    -2.17723  -0.23899  -0.89477
O    -3.35569   0.09818  -1.01443
O    -1.65955  -1.25904  -1.58646
C    -2.54750  -1.94511  -2.47835
H    -4.33231   3.37057   1.43155
H    -3.11155   3.00172   2.68296
H    -2.70382   4.09980   1.34278
H    -3.49287   1.57979   0.18143
H     0.47116   0.77125   0.84826
H     2.33521   1.14479   0.84483
H     4.72037   0.87598   1.35374
H     5.92106  -1.23018   0.76535
H     4.68203  -3.08910  -0.35353
H     2.24925  -2.83185  -0.85949
H    -2.93500  -1.25871  -3.24523
H    -1.94859  -2.73557  -2.94550
H    -3.39026  -2.38431  -1.92492
