18
Generated by autodE on: 2022-06-04. E = -733.137983 Ha
C    -4.21710  -0.43265  -0.25801
O    -2.82772  -0.79401  -0.33822
C    -1.95161   0.14983  -0.00981
O    -2.23793   1.27298   0.34552
C    -0.55474  -0.36047  -0.13666
F    -0.44457  -1.61805  -0.54833
C     0.55477   0.36067   0.13611
F     0.44459   1.61820   0.54793
C     1.95162  -0.14972   0.00950
O     2.23795  -1.27260  -0.34665
O     2.82771   0.79370   0.33918
C     4.21707   0.43215   0.25936
H    -4.43272   0.40110  -0.94129
H    -4.47521  -0.14241   0.77042
H    -4.77638  -1.32644  -0.55557
H     4.77634   1.32555   0.55806
H     4.47566   0.14284  -0.76921
H     4.43216  -0.40229   0.94196
