56
Generated by autodE on: 2022-06-10. E = -1909.173200 Ha
C    -9.09088  -1.53114   9.80749
N    -8.66631  -2.35355   8.69026
C    -7.73137  -1.93486   7.83246
O    -7.17728  -0.83155   7.89015
C    -7.39393  -2.88905   6.71807
N    -8.32758  -3.37118   5.98027
C    -7.67843  -4.15564   4.91543
C    -8.12904  -3.41312   3.64129
O    -7.45966  -2.55810   3.10233
O    -9.36334  -3.72307   3.28194
C    -9.91053  -3.01115   2.15742
C    -8.11748  -5.62403   5.08501
C    -8.65997  -6.40273   4.05601
C    -9.03010  -7.72966   4.29409
C    -8.86065  -8.29774   5.55835
C    -8.31554  -7.52646   6.58903
C    -7.94881  -6.20128   6.35267
C    -6.16830  -3.98263   5.13655
C    -6.02700  -3.27046   6.28394
C    -4.77695  -2.80969   7.03413
C    -5.04210  -2.72526   8.48901
N    -5.19872  -2.67797   9.63590
C    -3.64433  -3.75818   6.98075
N    -2.70414  -4.43182   7.04150
C    -4.29796  -1.40230   6.51882
C    -4.26797  -1.27779   4.99877
C    -3.47416  -2.35201   4.23027
C    -4.30144  -3.39168   3.46133
C    -5.09592  -4.49416   4.19781
Cl   -5.88062  -5.44185   2.78868
C    -4.28387  -5.67074   4.82359
C    -2.95475  -5.99995   4.21356
O    -4.76995  -6.30387   5.73744
H    -8.22514  -1.24652  10.42508
H    -9.58322  -0.60914   9.46044
H    -9.79638  -2.10306  10.42116
H    -9.08188  -3.26894   8.54850
H    -9.29384  -3.18448   1.26454
H   -10.91864  -3.41424   2.01158
H    -9.95322  -1.93501   2.37597
H    -8.79376  -5.98989   3.05925
H    -9.45187  -8.32067   3.47783
H    -9.14984  -9.33549   5.73987
H    -8.17320  -7.95582   7.58330
H    -7.51977  -5.61740   7.16822
H    -3.30656  -1.21809   6.95818
H    -5.00088  -0.67060   6.93500
H    -3.82891  -0.28962   4.79312
H    -5.29844  -1.23316   4.61409
H    -2.89023  -1.84538   3.44716
H    -2.72199  -2.83291   4.87235
H    -3.63453  -3.90934   2.75977
H    -5.03970  -2.85527   2.85116
H    -2.55878  -6.90794   4.68471
H    -3.05034  -6.14896   3.12811
H    -2.25547  -5.16547   4.37215
