56
Generated by autodE on: 2022-06-10. E = -1909.060273 Ha. Imaginary frequency = -160.6 cm-1
C    -8.51892  -1.10327  10.32460
N    -8.20961  -2.06727   9.28256
C    -8.45464  -1.79675   7.99549
O    -8.98447  -0.77130   7.56690
C    -7.98647  -2.80079   7.00491
N    -8.50863  -3.64107   6.31977
C    -8.53548  -4.52308   5.35122
C    -9.07052  -3.94760   4.08721
O    -9.44602  -2.79184   3.99880
O    -9.09692  -4.80736   3.06934
C    -9.60120  -4.31598   1.82037
C    -8.18984  -5.92543   5.66079
C    -8.52041  -7.00382   4.81814
C    -8.09212  -8.29746   5.12321
C    -7.33986  -8.54667   6.27299
C    -7.02888  -7.48582   7.13160
C    -7.45149  -6.19350   6.83422
C    -5.94806  -3.60305   4.95179
C    -5.84369  -3.00128   6.01848
C    -4.93403  -2.43259   7.04629
C    -5.18747  -0.98749   7.21717
N    -5.38648   0.14899   7.32162
C    -5.17466  -3.11967   8.33367
N    -5.35780  -3.71286   9.31212
C    -3.44556  -2.70758   6.62525
C    -2.93604  -1.98047   5.37776
C    -3.61566  -2.20921   4.01400
C    -3.88371  -3.67442   3.61809
C    -5.37957  -4.08454   3.69519
Cl   -6.25705  -3.23408   2.30666
C    -5.48466  -5.63131   3.58497
C    -6.02443  -6.26200   2.34456
O    -5.07264  -6.26770   4.53444
H    -8.22183  -1.52638  11.29113
H    -9.59608  -0.88003  10.34849
H    -7.97384  -0.16011  10.16114
H    -7.68758  -2.90707   9.51803
H    -9.51921  -5.15111   1.11568
H    -9.00248  -3.46359   1.47263
H   -10.65113  -4.00844   1.92883
H    -9.10433  -6.83152   3.91859
H    -8.35325  -9.11776   4.45061
H    -7.00285  -9.55977   6.50367
H    -6.44633  -7.66493   8.03819
H    -7.18330  -5.38100   7.51042
H    -3.37893  -3.79886   6.50884
H    -2.81172  -2.42722   7.47961
H    -1.87831  -2.28061   5.29342
H    -2.92501  -0.89582   5.57542
H    -2.95601  -1.75837   3.25729
H    -4.55247  -1.63558   3.95935
H    -3.34381  -4.36391   4.28467
H    -3.53720  -3.88422   2.59567
H    -5.93555  -7.35248   2.42434
H    -5.48245  -5.89048   1.46095
H    -7.07882  -5.97473   2.21771
