47
Generated by autodE on: 2022-05-30. E = -1044.023484 Ha
C     1.44681  -0.86726  -3.52928
O     0.79164  -0.22901  -2.42582
C     0.14686  -1.02174  -1.56137
O     0.08530  -2.22625  -1.70661
C    -0.35611  -0.24292  -0.36301
C    -0.76159   1.22235  -0.67736
C    -1.81533   1.22198  -1.81091
C    -3.08405   0.64797  -1.11790
C    -2.61130   0.40674   0.33162
C    -1.64280   1.58321   0.53403
C    -1.66056  -0.80713   0.33692
F    -2.26655  -1.85038  -0.36505
C    -1.19572  -1.34552   1.72630
C    -2.21468  -1.14391   2.84663
C    -0.85724  -2.84473   1.61846
N    -0.00028  -0.52833   1.98664
C     0.75886  -0.41135   0.74874
C     1.80457   0.68148   0.76447
C     1.72351   1.77941   1.63148
C     2.68326   2.79553   1.58700
C     3.73950   2.72790   0.67388
C     3.83699   1.62850  -0.18628
C     2.88095   0.61192  -0.13487
H     0.71314  -1.37753  -4.16978
H     2.18503  -1.59716  -3.16693
H     1.94590  -0.06700  -4.08761
H     0.09790   1.87442  -0.86751
H    -1.50592   0.63654  -2.68631
H    -1.98046   2.25387  -2.15453
H    -3.45210  -0.27092  -1.59101
H    -3.90754   1.37664  -1.11693
H    -3.43155   0.30867   1.05155
H    -1.11586   1.56025   1.49197
H    -2.14128   2.55645   0.40990
H    -3.16393  -1.64797   2.60900
H    -1.82800  -1.57813   3.78222
H    -2.41457  -0.07888   3.02660
H    -0.19239  -3.06062   0.77125
H    -0.35663  -3.16201   2.54698
H    -1.76554  -3.45075   1.49356
H     0.56968  -0.95147   2.71885
H     1.28993  -1.35079   0.51002
H     0.90454   1.82910   2.34899
H     2.60503   3.64420   2.27124
H     4.48841   3.52283   0.63773
H     4.66604   1.55880  -0.89485
H     2.96932  -0.24948  -0.80109
