24
Generated by autodE on: 2022-05-30. E = -443.816178 Ha
C    -3.48132  -1.07827  -0.13054
C    -2.86848   0.26165   0.06512
C    -3.69716   1.48565   0.26062
N    -1.54889   0.36169   0.05680
C    -0.59330  -0.59915  -0.11578
C     0.80332  -0.31331  -0.06417
C     1.73817  -1.36915  -0.28373
C     3.11108  -1.15142  -0.24835
C     3.63486   0.12612   0.00617
C     2.73664   1.17918   0.22784
C     1.35865   0.97464   0.19771
H    -4.57667  -1.02106  -0.08040
H    -3.13048  -1.79624   0.63627
H    -3.19853  -1.51391  -1.10886
H    -4.36631   1.37950   1.13388
H    -4.35237   1.67133  -0.61060
H    -3.07281   2.37948   0.41444
H    -1.19573   1.30962   0.19812
H    -0.94247  -1.61250  -0.30033
H     1.35457  -2.37341  -0.48580
H     3.78868  -1.99233  -0.42325
H     4.71350   0.29510   0.03250
H     3.11735   2.18431   0.43188
H     0.70590   1.83162   0.38700
