23
Generated by autodE on: 2022-05-30. E = -600.129005 Ha
C     3.41672   1.20664  -0.66956
O     2.05474   1.12092  -0.23651
C     1.52411  -0.11508  -0.15502
O     2.15813  -1.12296  -0.42792
C     0.13515  -0.07756   0.28904
C    -0.75944  -1.08906   0.22813
F    -0.55017  -2.32463  -0.20485
C    -2.13535  -0.57935   0.54678
C    -2.53468   0.31398  -0.68013
C    -1.54648   1.51222  -0.58264
C    -0.68911   1.15128   0.67022
C    -1.76005   0.50721   1.57813
H     4.07913   0.66445   0.02140
H     3.53037   0.78866  -1.68077
H     3.66768   2.27392  -0.67290
H    -2.86816  -1.34566   0.82540
H    -2.45569  -0.23940  -1.62635
H    -3.57858   0.63874  -0.56333
H    -2.08174   2.45913  -0.41889
H    -0.91904   1.62677  -1.47761
H    -0.10934   1.98162   1.08829
H    -2.59770   1.18213   1.80815
H    -1.34464   0.09250   2.50789
