47
Generated by autodE on: 2022-05-30. E = -1043.957191 Ha. Imaginary frequency = -197.3 cm-1
C     2.04041  -0.76605  -3.02222
O     1.01564  -0.15047  -2.24225
C     0.19233  -0.98223  -1.55023
O     0.31732  -2.20528  -1.62549
C    -0.78023  -0.25156  -0.77684
C    -1.01563   1.25379  -0.85931
C    -2.06750   1.43994  -1.99885
C    -3.35266   0.79925  -1.38994
C    -2.89035   0.37406   0.04512
C    -1.90906   1.51236   0.37183
C    -1.91577  -0.75954  -0.17346
F    -2.41181  -1.99509  -0.40563
C    -1.02813  -1.40908   2.06712
C    -2.12985  -1.12028   3.03677
C    -0.76803  -2.82792   1.66955
N    -0.00251  -0.53542   2.02236
C     1.08264  -0.57047   1.22804
C     1.95498   0.55592   1.02682
C     1.70560   1.85677   1.53237
C     2.56848   2.91332   1.24543
C     3.70260   2.71887   0.44651
C     3.96424   1.43903  -0.06053
C     3.11072   0.37696   0.22519
H     1.60699  -1.35763  -3.84316
H     2.66950  -1.42188  -2.40310
H     2.64512   0.05234  -3.43184
H    -0.11359   1.86856  -0.95486
H    -1.74329   0.95319  -2.92958
H    -2.21792   2.50984  -2.21054
H    -3.71868  -0.06375  -1.96462
H    -4.17328   1.52832  -1.31722
H    -3.70188   0.16944   0.75417
H    -2.38852   2.50190   0.34082
H    -1.39664   1.40036   1.33167
H    -3.08955  -1.48660   2.64087
H    -2.22647  -0.04158   3.23300
H    -1.96630  -1.63095   4.00565
H    -1.70377  -3.40107   1.67461
H    -0.07552  -3.29873   2.39513
H    -0.31852  -2.91872   0.67262
H    -0.18867   0.35453   2.48322
H     1.35538  -1.53344   0.80482
H     0.82492   2.05615   2.14741
H     2.34892   3.90571   1.64778
H     4.37147   3.55259   0.22192
H     4.84407   1.26808  -0.68634
H     3.32155  -0.61564  -0.17967
