40
Generated by autodE on: 2022-06-19. E = -956.357760 Ha
C    -5.02998   1.18146  -1.49076
C    -3.76388   0.76358  -1.69223
C    -3.23096   0.47677  -3.07087
C    -2.87157   0.57930  -0.54290
C    -1.59228   0.17104  -0.60381
C    -0.71267   0.01907   0.60735
C     0.54649   0.84136   0.44226
C     0.62570   2.31839   0.40345
O     1.63097   2.96010   0.16645
O    -0.56289   2.86737   0.67485
C    -0.63229   4.29940   0.65677
N     1.61415   0.14519   0.25168
N     1.30351  -1.16932   0.34230
C     2.28210  -2.13618   0.26290
O     2.07210  -3.31771   0.47955
O     3.46847  -1.63373  -0.09135
C     4.53983  -2.57964  -0.20958
C    -0.09975  -1.40923   0.83499
C    -0.81171  -2.50956   0.05643
C    -0.04937  -1.72006   2.33212
H    -5.40431   1.38616  -0.48306
H    -5.72217   1.32934  -2.32443
H    -2.36059   1.11420  -3.29932
H    -3.99815   0.64927  -3.83875
H    -2.88564  -0.56729  -3.15259
H    -3.30384   0.80156   0.43982
H    -1.12509  -0.05059  -1.56775
H    -1.27459   0.32696   1.49945
H    -0.35179   4.68412  -0.33442
H    -1.67411   4.55377   0.88232
H     0.03812   4.72607   1.41688
H     4.71686  -3.08755   0.74947
H     4.31366  -3.32649  -0.98431
H     5.42230  -1.99545  -0.49537
H    -1.88116  -2.49152   0.31120
H    -0.71648  -2.36499  -1.02826
H    -0.40800  -3.49566   0.31566
H     0.43824  -0.90219   2.88459
H    -1.07384  -1.83533   2.71668
H     0.50198  -2.65214   2.51906
