23
Generated by autodE on: 2022-06-19. E = -351.521384 Ha
C     3.51123  -0.88348   1.09087
C     2.48786  -0.66632   0.23559
C     2.66381  -0.82389  -1.25314
C     1.17845  -0.27029   0.74996
C     0.07617  -0.02108  -0.00089
C    -1.20063   0.36864   0.56182
C    -2.34566   0.63588  -0.11569
C    -3.59727   1.03046   0.61623
C    -2.48374   0.56996  -1.61024
H     4.50111  -1.18085   0.73363
H     3.37992  -0.76784   2.17119
H     1.97291  -1.58262  -1.65680
H     2.43979   0.11762  -1.78168
H     3.69108  -1.12418  -1.50332
H     1.10181  -0.17150   1.83952
H     0.14523  -0.11704  -1.08790
H    -1.22962   0.45271   1.65496
H    -4.41793   0.32354   0.39800
H    -3.44859   1.06548   1.70546
H    -3.95157   2.02148   0.27976
H    -3.27343  -0.14995  -1.88916
H    -1.55987   0.28152  -2.12778
H    -2.80901   1.54804  -2.00679
