40
Generated by autodE on: 2022-10-07. E = -977.581139 Ha
C    -0.20255  -2.45637  -1.59991
N    -0.29542  -1.46310  -0.55334
C    -1.64264  -1.18153  -0.00545
C    -2.13541  -2.37973   0.81724
C    -2.68224  -0.88027  -1.10067
C    -1.31807   0.01739   0.91523
C    -2.43325   0.87270   1.54699
O    -3.61219   0.42387   1.59007
O    -2.05875   1.95773   2.07123
C    -0.20879   0.81871   0.21203
C    -0.62805   2.10711  -0.53191
O     0.25213   3.01447  -0.59029
O    -1.77072   2.18856  -1.05376
C     0.51016  -0.23560  -0.71687
C     0.59061   0.22627  -2.19115
C     1.95008  -0.44732  -0.21605
C     2.85039   0.63461  -0.22407
C     4.16626   0.48288   0.21557
C     4.61745  -0.76051   0.67524
C     3.73067  -1.83878   0.70063
C     2.40959  -1.68080   0.26238
H     0.85177  -2.69741  -1.80433
H    -0.68738  -3.39027  -1.27560
H    -0.66262  -2.16484  -2.56540
H    -2.34464  -3.25415   0.18075
H    -3.06494  -2.11307   1.33961
H    -1.38547  -2.67191   1.56886
H    -3.65615  -0.65779  -0.64599
H    -2.80791  -1.75061  -1.76337
H    -2.39356  -0.01107  -1.70185
H    -0.82976  -0.43665   1.79661
H     0.50844   1.16057   0.96533
H     1.10897   1.18950  -2.27093
H     1.14403  -0.50270  -2.79993
H    -0.41228   0.34924  -2.62015
H     2.49927   1.61714  -0.54612
H     4.84219   1.34205   0.20634
H     5.64791  -0.88237   1.01810
H     4.06404  -2.81322   1.06759
H     1.71865  -2.52205   0.30447
