30
Generated by autodE on: 2022-10-13. E = -522.456583 Ha
C    -3.05797  -1.65277   0.42302
C    -2.08274  -0.52690   0.26736
C    -1.86620   0.41402   1.39064
N    -1.42473  -0.36212  -0.88292
C    -1.89625  -1.11395  -2.06141
C    -0.28503   0.43693  -1.02183
C    -0.21112   1.33908  -2.22604
C     0.80393   0.36314  -0.09975
C     1.90209   1.27790  -0.21430
C     3.02232   1.19453   0.60675
C     3.13648   0.19735   1.58721
C     2.08375  -0.71935   1.71553
C     0.94672  -0.63807   0.91525
H    -2.63785  -2.61825   0.09589
H    -3.97609  -1.48963  -0.17015
H    -3.35586  -1.74848   1.47533
H    -2.77398   0.47702   2.00896
H    -1.58805   1.40959   1.00529
H    -1.03187   0.10763   2.05608
H    -1.30212  -0.83209  -2.93418
H    -1.75699  -2.19010  -1.88613
H    -2.95995  -0.92048  -2.25682
H    -1.11788   1.26990  -2.84244
H     0.65743   1.13073  -2.87942
H    -0.12440   2.40196  -1.93173
H     1.86421   2.06851  -0.96461
H     3.82694   1.92507   0.47821
H     4.01575   0.13914   2.23248
H     2.14592  -1.51822   2.46082
H     0.17109  -1.39499   1.04019
