40
Generated by autodE on: 2022-10-07. E = -977.492069 Ha. Imaginary frequency = -264.0 cm-1
C     0.17180  -2.75001  -0.51849
N    -0.35390  -1.40606  -0.82235
C    -1.69329  -1.22665  -0.61240
C    -2.52073  -2.42602  -0.23830
C    -2.47715  -0.16386  -1.33166
C    -1.33998   0.07047   1.33749
C    -2.78842   0.36346   1.63756
O    -3.40743  -0.55840   2.25851
O    -3.31366   1.46223   1.30106
C    -0.29142   0.87699   0.89859
C    -0.21186   2.22171   0.23819
O     0.93024   2.77865   0.30195
O    -1.19390   2.71802  -0.39113
C     0.54170  -0.36864  -1.10327
C     0.32453   0.48804  -2.32677
C     1.92573  -0.44936  -0.62428
C     2.96966   0.21470  -1.31745
C     4.28062   0.23335  -0.83618
C     4.61377  -0.40483   0.36101
C     3.59794  -1.05027   1.07883
C     2.28875  -1.06394   0.60646
H     1.21611  -2.81422  -0.83048
H     0.09831  -3.00370   0.54786
H    -0.39750  -3.49283  -1.09222
H    -2.71954  -3.07106  -1.11626
H    -3.48845  -2.07668   0.14081
H    -2.06642  -3.04960   0.54142
H    -3.49770  -0.14061  -0.93008
H    -2.55659  -0.41510  -2.40645
H    -2.05756   0.84131  -1.22912
H    -1.00814  -0.80880   1.90108
H     0.69071   0.58192   1.26281
H     0.66371   1.52117  -2.15772
H     0.91168   0.09546  -3.17922
H    -0.71382   0.52345  -2.65478
H     2.76146   0.72181  -2.25810
H     5.05120   0.75343  -1.41180
H     5.63970  -0.39082   0.73605
H     3.82565  -1.53672   2.03120
H     1.52478  -1.53450   1.22339
