27
Generated by autodE on: 2022-10-13. E = -649.521317 Ha
C    -3.67143   2.06958  -1.15429
C    -2.31242   1.41774  -1.14316
O    -1.58493   1.41068  -2.15663
C    -1.85267   0.80055   0.07572
C    -2.62918   0.78735   1.24531
N    -3.34153   0.82080   2.17431
N    -0.57907   0.25579  -0.04069
C     0.22440  -0.39979   0.75829
C    -0.20975  -0.74243   2.14301
C     1.54870  -0.77279   0.23937
C     2.23209  -1.88482   0.77090
C     3.47416  -2.26412   0.26205
C     4.06402  -1.53605  -0.77535
C     3.40160  -0.42200  -1.30344
C     2.15845  -0.04161  -0.80325
H    -3.69750   2.91673  -0.44988
H    -4.45191   1.36050  -0.83679
H    -3.89411   2.43281  -2.16574
H    -0.26053   0.43625  -1.00575
H    -0.49600   0.17189   2.68528
H    -1.09151  -1.40293   2.12495
H     0.59071  -1.23390   2.70410
H     1.78058  -2.47301   1.57050
H     3.98298  -3.13602   0.67885
H     5.04024  -1.83029  -1.16711
H     3.86257   0.16289  -2.10230
H     1.67842   0.85214  -1.20818
