37
Generated by autodE on: 2022-10-07. E = -1104.545407 Ha. Imaginary frequency = -431.7 cm-1
C    -3.86493   1.13300  -0.89133
C    -2.43424   0.95323  -1.33462
O    -2.15488   0.69003  -2.50166
C    -1.39213   1.16158  -0.30532
C    -1.71433   2.13075   0.69217
N    -1.99756   2.90109   1.52101
N    -0.03122   1.07145  -0.59399
C     0.58244  -0.14196  -0.83709
C    -0.00603  -1.09756  -1.84227
C     2.07718  -0.08135  -0.81064
C     2.82737  -1.27035  -0.74287
C     4.22016  -1.23780  -0.68923
C     4.89947  -0.01506  -0.70328
C     4.16877   1.17345  -0.77230
C     2.77329   1.14116  -0.82639
C    -0.05015  -1.07603   0.92601
C     1.00401  -0.52569   1.86033
O     0.94622   0.71376   2.12212
O     1.87955  -1.32356   2.28771
C    -1.38153  -0.64309   1.10671
C    -2.58606  -1.47858   0.73997
O    -2.47891  -2.33736  -0.17923
O    -3.63924  -1.24618   1.40028
H    -4.08501   2.21115  -0.81463
H    -4.05027   0.67876   0.09153
H    -4.53011   0.69283  -1.64595
H     0.50691   1.57851   0.11240
H     0.57801  -2.02571  -1.85024
H    -1.04261  -1.35493  -1.61149
H     0.04592  -0.64887  -2.84659
H     2.31502  -2.23232  -0.70648
H     4.77892  -2.17470  -0.62954
H     5.99094   0.00994  -0.66316
H     4.68534   2.13591  -0.79426
H     2.22795   2.08250  -0.90722
H     0.09171  -2.10459   0.58276
H    -1.56780   0.05933   1.91914
