46
Generated by autodE on: 2022-06-20. E = -1106.186068 Ha. Imaginary frequency = -407.9 cm-1
C    -1.44474   3.18812   1.66437
O    -1.48394   1.88409   1.08743
C    -0.82466   1.72459  -0.09092
O    -0.22559   2.68020  -0.60302
C    -0.86815   0.37072  -0.59998
C    -1.98134  -0.52955  -0.22400
C    -3.29496  -0.02514  -0.09908
C    -4.35339  -0.84845   0.28066
C    -4.13469  -2.20707   0.53890
C    -2.84558  -2.72803   0.40363
C    -1.78411  -1.90271   0.02601
C     1.33124   0.07376   0.82887
N     1.01276  -1.08247   1.47677
C     0.13985  -0.99712   2.63985
C     1.36599  -2.31325   0.93180
C     2.16830  -2.41216  -0.14313
C     2.82627  -1.20726  -0.75789
C     2.17932   0.11556  -0.32607
C     3.05419   1.34799  -0.34638
N     4.20223   1.25862  -1.04310
O     2.71098   2.40122   0.20821
N     1.15644   0.63781  -1.78585
N    -0.05100   0.07251  -1.69338
C    -0.16492  -1.18836  -2.41121
H    -2.00289   3.11913   2.60625
H    -1.91943   3.92988   1.00401
H    -0.40864   3.49991   1.86465
H    -3.48535   1.02896  -0.30601
H    -5.35890  -0.42918   0.36714
H    -4.96419  -2.85289   0.83651
H    -2.65837  -3.78712   0.59746
H    -0.79149  -2.33526  -0.06736
H     1.16050   0.98897   1.39177
H    -0.79701  -0.48411   2.38005
H    -0.09174  -2.00642   2.99946
H     0.63207  -0.43475   3.44971
H     0.94619  -3.18269   1.43864
H     2.43161  -3.40215  -0.51957
H     3.89296  -1.21140  -0.46129
H     2.82561  -1.27450  -1.85797
H     4.78572   2.08565  -1.12114
H     4.45976   0.43498  -1.57185
H     1.02847   1.60734  -1.47755
H     0.35672  -1.06918  -3.36778
H    -1.21779  -1.43006  -2.59480
H     0.30143  -2.01990  -1.85317
