33
Generated by autodE on: 2022-05-26. E = -976.699816 Ha. Imaginary frequency = -523.4 cm-1
C    -4.98440  -0.75883  -1.25395
N    -3.69866  -0.11739  -1.07205
C    -2.54856  -0.81777  -1.10009
O    -2.47567  -2.02336  -1.38111
C    -1.34579  -0.05454  -0.74675
N    -0.09193  -0.56045  -0.87999
C     0.74843   0.25816  -0.17979
C     2.21320   0.18138  -0.20924
C     2.97924   1.33398   0.02647
C     4.37240   1.25351   0.03911
C     5.00919   0.02775  -0.17660
C     4.24589  -1.12381  -0.40175
C     2.85397  -1.05286  -0.41169
O     0.16157   1.50581  -0.16987
C    -1.20970   1.32381  -0.36994
O    -2.01389   2.23074  -0.23254
C     0.13272  -0.30969   1.71012
F     1.26432  -0.53134   2.35695
C    -1.11014  -0.29233   1.80229
C    -2.52235  -0.28737   2.17413
H    -5.75941   0.01322  -1.33402
H    -5.23097  -1.42158  -0.40701
H    -4.98957  -1.36500  -2.17180
H    -3.65482   0.85643  -0.77753
H     0.07152  -1.55955  -1.00134
H     2.48156   2.28923   0.19680
H     4.96300   2.15457   0.21843
H     6.09976  -0.03267  -0.16553
H     4.73828  -2.08476  -0.56555
H     2.26881  -1.96091  -0.57220
H    -3.04756  -1.16688   1.76845
H    -3.03224   0.61442   1.79775
H    -2.63197  -0.29979   3.27261
