23
Generated by autodE on: 2022-07-26. E = -589.065338 Ha
C     0.10291   0.90969  -1.88364
C     0.12508   0.15228  -0.60364
N    -0.85391   0.29974   0.26269
C    -1.93828   1.18854   0.27130
C    -3.05712   0.83796   1.04637
N    -3.99128   0.55125   1.69279
C    -1.89399   2.45165  -0.34029
N    -1.88434   3.52083  -0.81917
C     1.21446  -0.76670  -0.24852
C     1.93079  -1.45281  -1.25099
C     2.93480  -2.35727  -0.90970
C     3.25516  -2.58528   0.43267
C     2.56454  -1.89855   1.43614
C     1.55749  -0.99485   1.10202
H     0.80110   0.48202  -2.61022
H     0.39854   1.95912  -1.71883
H    -0.91233   0.91709  -2.30967
H    -0.83749  -0.33091   1.06845
H     1.68555  -1.30356  -2.30270
H     3.46924  -2.89027  -1.69897
H     4.04752  -3.28956   0.69563
H     2.82174  -2.05440   2.48600
H     1.06225  -0.43681   1.89938
