17
Generated by autodE on: 2022-06-02. E = -513.467407 Ha
C     3.12652   0.64696  -0.74586
N     2.81599  -0.74360  -1.01999
C     1.63316  -1.36188  -0.87243
O     1.44107  -2.55915  -1.10907
C     0.51459  -0.54496  -0.40019
C    -0.47750   0.03337  -0.00614
C    -1.67364   0.75047   0.39355
O    -2.44623   1.24949  -0.39861
O    -1.80346   0.78836   1.71731
C    -2.95782   1.48028   2.22812
H     3.55246   1.12899  -1.63848
H     3.85209   0.73207   0.07788
H     2.21487   1.18727  -0.46275
H     3.57053  -1.34709  -1.34258
H    -3.87879   1.00399   1.86311
H    -2.89278   1.40241   3.31894
H    -2.93803   2.53411   1.91616
