30
Generated by autodE on: 2022-06-16. E = -555.681943 Ha. Imaginary frequency = -541.9 cm-1
C     3.31272  -2.83763  -1.99350
C     2.04081  -2.58410  -1.23441
C     1.07774  -3.73721  -1.21393
C     1.81866  -1.38965  -0.62953
C     0.64862  -0.99762   0.12916
C     0.50205   0.22877   0.69090
C    -0.65125   0.68779   1.45977
C    -1.75730  -0.28889   1.77946
C    -0.52520   1.87067   2.20178
N    -1.25298   3.41082   1.02243
N    -1.60569   2.82783   0.06060
N    -1.77459   1.63531  -0.29217
C    -1.55183   1.23228  -1.66564
H     3.98639  -1.96823  -1.97837
H     3.85330  -3.70540  -1.57417
H     3.09682  -3.09362  -3.04656
H     0.15151  -3.52919  -0.66298
H     1.55371  -4.62594  -0.76269
H     0.80625  -4.02696  -2.24455
H     2.60031  -0.62544  -0.72006
H    -0.15242  -1.73183   0.24961
H     1.30843   0.96068   0.56193
H    -2.61810   0.22836   2.22598
H    -2.10611  -0.83270   0.89028
H    -1.39870  -1.04109   2.50407
H     0.45428   2.34554   2.28436
H    -1.21977   2.05942   3.02416
H    -1.55723   0.13374  -1.68024
H    -0.58259   1.58223  -2.05805
H    -2.35843   1.58214  -2.33164
