28
Generated by autodE on: 2022-05-28. E = -803.196193 Ha
C    -3.80436  -1.48583  -0.23021
N    -2.44903  -1.01775  -0.42511
C    -1.87326  -0.07015   0.31812
O    -2.41599   0.53924   1.24385
C    -0.39077   0.21423  -0.06228
C    -0.20136   1.74906  -0.27544
C    -0.19968   2.64801   0.91852
O    -0.03227   2.14902  -1.41165
N     0.04210  -0.53141  -1.24445
C     1.37592  -1.11120  -0.99001
C     2.46398  -0.34356  -1.62994
N     3.31090   0.26904  -2.13445
C     1.53299  -1.07671   0.51861
C     2.64133  -1.75183   1.24409
C     0.53834  -0.32988   0.99849
F     0.32193  -0.04196   2.28185
H    -4.32262  -0.80845   0.45949
H    -4.34506  -1.50437  -1.18794
H    -3.81923  -2.50178   0.19658
H    -1.84405  -1.44085  -1.12730
H    -0.17347   3.69748   0.59824
H     0.69120   2.42693   1.52957
H    -1.07749   2.44077   1.54524
H     0.04631   0.09874  -2.04819
H     1.44358  -2.14170  -1.37910
H     2.57166  -1.57212   2.32562
H     3.61882  -1.38388   0.88903
H     2.61977  -2.83919   1.06279
