21
Generated by autodE on: 2022-07-26. E = -587.123280 Ha
C    -3.27408  -0.73521   1.74412
N    -2.11153   0.04843   1.37625
C    -1.21862  -0.41571   0.47522
O    -1.37344  -1.53806  -0.04363
C    -0.04965   0.41197   0.12320
N     0.97003  -0.15687  -0.56875
C     1.20295  -1.36329  -1.04557
C     2.41752  -1.61998  -1.71769
N     3.40947  -1.86858  -2.28022
C     0.23410   1.83090   0.36880
C    -0.74501   2.73140   1.07059
O     1.31399   2.29553  -0.03134
H    -2.98796  -1.68120   2.23224
H    -3.88553  -0.14940   2.44116
H    -3.88220  -0.98385   0.86058
H    -1.95909   0.93122   1.84387
H     1.69745   0.57128  -0.71880
H     0.45862  -2.14569  -0.91561
H    -0.40869   3.76929   0.95411
H    -0.76904   2.50049   2.14975
H    -1.76323   2.62720   0.66951
