21
Generated by autodE on: 2022-05-28. E = -587.125613 Ha
C     3.38564   1.28488   0.96687
N     2.27700   0.35936   0.89438
C     1.15481   0.66398   0.21820
O     1.02158   1.75528  -0.37187
C     0.08337  -0.35951   0.20931
N    -1.07548  -0.09332  -0.45040
C    -1.49285   0.95670  -1.14165
C    -2.77619   0.93906  -1.72441
N    -3.83201   0.96234  -2.22211
C     0.17608  -1.66029   0.86362
C    -0.98927  -2.62434   0.77204
O     1.18865  -2.00122   1.49467
H     4.19168   0.82652   1.55308
H     3.09309   2.23152   1.45039
H     3.77438   1.53064  -0.03501
H     2.30401  -0.55736   1.34451
H    -1.75994  -0.85468  -0.39985
H    -0.83340   1.81500  -1.24577
H    -1.20747  -2.89891  -0.27311
H    -0.72452  -3.53350   1.32514
H    -1.90503  -2.19838   1.21335
