51
Generated by autodE on: 2022-06-05. E = -1486.396048 Ha
C    -3.61307   3.95112   0.36252
N    -2.34004   3.27580   0.51421
C    -2.21246   1.96292   0.77041
O    -3.17486   1.19927   0.93635
C    -0.77345   1.44084   0.78665
N    -0.40623   0.83393  -0.50397
C    -0.84734  -0.55072  -0.50617
C    -2.32340  -0.66513  -0.97187
O    -2.75715   0.04612  -1.85440
O    -3.01576  -1.62190  -0.37390
C    -4.39764  -1.74897  -0.75136
C    -0.07689  -1.35280  -1.56603
O     0.60060  -0.85543  -2.43707
O    -0.29182  -2.65747  -1.42779
C     0.32595  -3.53032  -2.39157
C    -0.62348  -1.01779   0.94683
C     0.75748  -1.63371   1.36617
O     0.76867  -1.27374   2.75659
C     0.72814   0.14558   2.55808
C     1.89711   0.34058   1.58722
C     2.72179   1.57371   1.53348
C     4.21519   1.43413   1.58406
O     2.16831   2.66613   1.54966
C     1.89857  -0.77856   0.83215
C     2.73344  -1.16461  -0.32061
O     2.89982  -2.32345  -0.65823
O     3.26949  -0.12120  -0.95153
C     4.08039  -0.40466  -2.10153
C    -0.62349   0.28851   1.78662
H    -3.71557   4.76672   1.09491
H    -3.71575   4.37651  -0.64808
H    -4.41816   3.22497   0.52436
H    -1.49032   3.81987   0.39989
H    -0.08394   2.26673   1.00888
H    -0.76553   1.34262  -1.31092
H    -4.93136  -0.81539  -0.52419
H    -4.79813  -2.57513  -0.15346
H    -4.48169  -1.97417  -1.82377
H     1.41846  -3.44654  -2.32481
H    -0.01006  -3.27168  -3.40540
H     0.00209  -4.54295  -2.12712
H    -1.40163  -1.71825   1.25748
H     0.85225  -2.71326   1.21988
H     0.78999   0.69242   3.50416
H     4.48702   1.23877   2.63679
H     4.57737   0.58663   0.98952
H     4.69129   2.37154   1.26585
H     3.46905  -0.88599  -2.87819
H     4.44989   0.56471  -2.45408
H     4.92004  -1.05986  -1.83032
H    -1.43297   0.29403   2.52365
