27
Generated by autodE on: 2022-07-27. E = -798.083875 Ha
C    -2.55025   2.70383   0.43500
N    -1.17187   2.25070   0.42682
C    -0.55681   1.85284   1.55352
O    -1.04281   1.96478   2.68251
C     0.84963   1.37403   1.40640
N     1.30035   0.47064   0.58508
C     0.73896  -0.40923  -0.32559
C    -0.62962  -0.88343  -0.23361
O    -1.24669  -1.48702  -1.09984
O    -1.16862  -0.62630   0.97802
C    -2.54625  -0.95372   1.17024
C     1.75249  -0.97432  -1.19651
O     2.94240  -0.66164  -1.11210
O     1.30842  -1.87265  -2.08618
C     2.29254  -2.46321  -2.94247
H    -3.25101   1.86592   0.58479
H    -2.70573   3.43086   1.24437
H    -2.77360   3.18501  -0.52510
H    -0.73004   2.06447  -0.46918
H     1.59081   1.84407   2.05630
H     2.32840   0.38654   0.55154
H    -3.16439  -0.52932   0.36635
H    -2.68543  -2.04484   1.19754
H    -2.82618  -0.51275   2.13427
H     3.04211  -3.01432  -2.35559
H     2.79826  -1.69445  -3.54517
H     1.74578  -3.15337  -3.59600
