24
Generated by autodE on: 2022-06-05. E = -688.223151 Ha
C     3.72306  -0.57150  -0.88795
O     2.48653   0.07339  -0.54807
C     1.54799  -0.68520   0.03360
O     1.70237  -1.86275   0.29326
C     0.34885   0.12603   0.31185
C    -0.97012  -0.16652   0.34043
C    -1.78897  -1.36190   0.03932
C    -1.18225  -2.73184   0.03443
O    -2.97680  -1.17905  -0.21390
C    -1.65993   1.21273   0.51147
C    -1.45890   1.97674  -0.81511
C    -0.15474   2.26366  -0.84876
C     0.41007   1.67148   0.46153
O    -0.69637   1.86728   1.34978
H     4.34871   0.20089  -1.34926
H     3.54460  -1.39261  -1.59710
H     4.20804  -0.96760   0.01587
H    -0.42946  -2.80272  -0.76618
H    -0.65277  -2.92429   0.97876
H    -1.97102  -3.47791  -0.12689
H    -2.66277   1.19779   0.94729
H    -2.23824   2.15657  -1.55435
H     0.44136   2.74502  -1.62264
H     1.34511   2.08466   0.85064
