24
Generated by autodE on: 2022-10-13. E = -593.051388 Ha
C    -2.34223   1.20699  -1.70199
C    -2.90377   0.62306  -0.44168
O    -4.11416   0.65360  -0.19706
C    -2.04889  -0.01802   0.57280
C    -2.66055  -0.57830   1.80651
O    -0.75655  -0.15795   0.50723
N     0.03441   0.25418  -0.48251
C     1.34600  -0.07857  -0.19557
C     2.29296   0.31780  -1.16911
C     3.64531   0.03951  -0.99312
C     4.08732  -0.63774   0.15054
C     3.15384  -1.03385   1.11813
C     1.79716  -0.76332   0.95845
H    -3.16906   1.62263  -2.29347
H    -1.59999   1.98633  -1.47095
H    -1.80017   0.44055  -2.27678
H    -3.40298  -1.35285   1.55210
H    -3.19922   0.20757   2.36145
H    -1.88706  -1.01419   2.45180
H     1.93939   0.84544  -2.05731
H     4.36270   0.35389  -1.75496
H     5.14863  -0.85569   0.28741
H     3.49021  -1.56358   2.01300
H     1.08245  -1.07800   1.71863
