10
Generated by autodE on: 2022-10-07. E = -455.051689 Ha
O    -2.72611  -1.17768  -0.09308
C    -1.96047  -0.19761   0.12569
O    -2.32272   0.95935   0.47503
C    -0.48035  -0.46314  -0.06105
C     0.48039   0.46318   0.06103
C     1.96047   0.19761  -0.12569
O     2.72612   1.17771   0.09298
O     2.32267  -0.95942  -0.47490
H    -0.20267  -1.48986  -0.32270
H     0.20275   1.48990   0.32268
