23
Generated by autodE on: 2022-06-18. E = -351.521384 Ha
C     3.67981   0.85170  -0.18240
C     2.57902   0.13575   0.13606
C     2.68200  -1.16558   0.88962
C     1.25580   0.62034  -0.25182
C     0.07840  -0.00215   0.00719
C    -1.20880   0.52315  -0.40019
C    -2.42598  -0.03547  -0.18076
C    -3.67876   0.63688  -0.66690
C    -2.64748  -1.33349   0.54258
H     3.60159   1.79597  -0.73007
H     4.68170   0.51269   0.09550
H     2.12065  -1.12153   1.83774
H     2.25032  -1.99683   0.30762
H     3.72850  -1.41125   1.11886
H     1.23533   1.57074  -0.79871
H     0.09132  -0.94987   0.55216
H    -1.18084   1.47584  -0.94289
H    -4.36141   0.84873   0.17570
H    -3.46790   1.58139  -1.18962
H    -4.23769  -0.02505  -1.35261
H    -3.17874  -2.04824  -0.11064
H    -3.30231  -1.17586   1.41781
H    -1.72221  -1.81103   0.88960
