17
Generated by autodE on: 2022-06-18. E = -509.661453 Ha
C     1.80168   1.86150   0.25957
N     2.01906   0.50711  -0.21488
C     1.17876  -0.54309  -0.17894
O     1.55133  -1.70319  -0.38962
C    -0.26076  -0.26448   0.14416
N    -0.83629  -1.19318   0.88085
N    -1.32428  -1.98243   1.52255
C    -1.12016   0.74836  -0.48379
C    -2.57560   0.76785  -0.08997
O    -0.65682   1.52892  -1.30916
H     2.70703   2.20208   0.78190
H     0.96812   1.88866   0.97275
H     1.58353   2.56061  -0.56072
H     2.96284   0.26295  -0.50719
H    -2.68422   0.89647   0.99880
H    -3.07503   1.59374  -0.61151
H    -3.06376  -0.18196  -0.36259
