22
Generated by autodE on: 2022-10-06. E = -928.029628 Ha
C    -2.50471   1.12806   0.81510
C    -1.23405   0.65737   0.17470
O    -0.13799   1.60970   0.29505
C     0.77633   0.87068  -0.47502
C     1.97747   1.64080  -0.80889
N     2.85046   2.29075  -1.20712
O     0.05031   0.65105  -1.73288
C    -1.24932   0.51877  -1.35024
O    -2.15411   0.32339  -2.11582
C     0.88506  -0.48462   0.24631
C     1.89394  -0.48251   1.41349
O     2.77118   0.41884   1.40951
O     1.76372  -1.39811   2.25986
C    -0.58183  -0.65748   0.70718
C    -1.33355  -1.90690   0.19103
O    -2.34140  -2.25302   0.85755
O    -0.91661  -2.43488  -0.87070
H    -3.27320   0.35478   0.68002
H    -2.34755   1.28005   1.89223
H    -2.85275   2.06537   0.35801
H     1.15966  -1.26793  -0.47274
H    -0.64815  -0.62947   1.80169
