12
Generated by autodE on: 2022-10-06. E = -472.896351 Ha
C    -2.66230   0.75973  -0.10055
C    -1.29773   0.20637  -0.02830
O    -0.21683   1.03026  -0.12486
C     0.87566   0.31963  -0.03606
C     2.15933   0.88498  -0.10066
N     3.22964   1.34343  -0.15299
O     0.61789  -0.95074   0.11690
C    -0.84095  -1.11540   0.13278
O    -1.33133  -2.21695   0.26399
H    -2.85184   1.47871   0.71379
H    -2.84020   1.27440  -1.05948
H    -3.37808  -0.06869  -0.01026
