33
Generated by autodE on: 2022-12-30. E = -819.382065 Ha
C    -3.85635   2.63019  -1.14746
N    -2.68263   2.36325  -0.34127
C    -1.89113   1.29466  -0.50275
O    -2.05164   0.41809  -1.35551
C    -0.65625   1.27861   0.44405
O    -0.89081   2.03371   1.61683
C    -1.71898   1.40759   2.59030
C    -0.23117  -0.10391   0.68414
C     0.37770  -1.13931   0.54168
C     1.44533  -2.00207   0.02227
C     0.98316  -3.37615  -0.26210
N     0.61392  -4.44342  -0.52015
C     2.55635  -2.06652   0.99718
N     3.44361  -2.08282   1.74196
C     1.94678  -1.33061  -1.31912
C     2.28374   0.16705  -1.21164
C     1.15661   1.20205  -1.48133
C     0.54719   1.95361  -0.28333
H    -3.78041   3.61599  -1.63143
H    -4.76972   2.61369  -0.53241
H    -3.93708   1.85901  -1.92283
H    -2.44385   2.99615   0.41726
H    -1.23506   0.50496   3.00106
H    -1.86527   2.13663   3.39844
H    -2.70239   1.12683   2.17668
H     2.82851  -1.90417  -1.63986
H     1.15035  -1.49706  -2.05865
H     3.06301   0.33427  -1.97007
H     2.77245   0.37552  -0.24485
H     1.59085   1.97932  -2.12764
H     0.35494   0.73864  -2.07720
H     1.31051   2.11811   0.49303
H     0.19489   2.94489  -0.60649
