61
Generated by autodE on: 2022-12-30. E = -1639.298280 Ha. Imaginary frequency = -246.1 cm-1
C     0.52963  -0.37922   4.57811
N     0.11266   0.31628   3.36749
C    -0.83806   1.24054   3.15462
O    -0.92335   1.82630   2.06661
C    -1.76687   1.70065   4.30204
O    -1.88313   0.76675   5.35706
C    -2.71512  -0.36096   5.11439
C    -1.02406   2.95571   4.85602
C    -1.41033   3.49591   6.23352
C    -2.78218   4.15464   6.42421
C    -3.94124   3.17941   6.67466
C    -4.92704   3.03643   5.46092
C    -5.88031   1.96602   5.83713
N    -6.56150   1.10989   6.21894
C    -5.69060   4.29744   5.33365
N    -6.27067   5.29969   5.34478
C    -4.19101   2.63301   4.23011
C    -3.14179   2.08383   3.81350
C    -3.85290   1.38931   1.85815
C    -2.93399   0.44712   1.15005
O    -2.66774  -0.63867   1.62273
O    -2.53225   0.87499  -0.03765
C    -1.56813   0.05760  -0.72373
O    -4.96524   0.73846   2.32443
C    -5.94109   1.69033   2.59548
O    -7.01517   1.38237   3.07236
C    -5.38053   2.95083   2.13376
C    -6.08112   4.23831   2.12245
C    -7.48862   4.24968   2.06635
C    -8.18634   5.45696   2.08384
C    -7.49497   6.66983   2.15837
C    -6.09848   6.66745   2.22632
C    -5.39487   5.46490   2.21491
N    -4.24440   2.63686   1.44146
C    -3.31517   3.60767   0.87531
H     0.59220   0.29990   5.43639
H    -0.13951  -1.21331   4.83434
H     1.52903  -0.79191   4.38841
H     0.68527   0.15699   2.54151
H    -2.48745  -0.84033   4.14949
H    -2.52773  -1.07173   5.93051
H    -3.78148  -0.08106   5.12268
H    -1.11153   3.74119   4.09135
H     0.04312   2.68803   4.90954
H    -1.28411   2.70141   6.98633
H    -0.64494   4.25383   6.46716
H    -2.71180   4.81272   7.30290
H    -3.00835   4.81841   5.57275
H    -4.54615   3.48682   7.53984
H    -3.56316   2.16843   6.87772
H    -0.65322  -0.02294  -0.12019
H    -1.35948   0.57274  -1.66776
H    -1.98085  -0.94243  -0.91473
H    -8.03256   3.30744   2.01294
H    -9.27763   5.44934   2.03715
H    -8.04370   7.61429   2.17357
H    -5.55175   7.60945   2.30738
H    -4.31261   5.48337   2.32581
H    -2.63870   3.09352   0.19125
H    -3.88459   4.36583   0.32775
H    -2.73391   4.07938   1.68054
