42
Generated by autodE on: 2022-06-18. E = -937.466872 Ha
C    -5.37031  -1.12977  -1.48910
C    -4.56224  -0.41965  -0.67628
C    -5.09289   0.66095   0.22784
C    -3.12258  -0.70003  -0.66418
C    -2.20980  -0.06508   0.09312
C    -0.74856  -0.38569   0.04978
C    -0.08954  -0.55135   1.40320
C    -0.77734  -1.16802   2.50874
N    -1.36797  -1.67003   3.37365
N     1.10897  -0.12606   1.52686
C     1.53991   0.38595   0.22227
C     2.40584   1.64062   0.37726
C     2.56192   2.23338   1.74133
O     2.92544   2.14472  -0.60848
C     2.28638  -0.78913  -0.48842
O     1.94037  -1.95137  -0.26699
N     3.24816  -0.46449  -1.35786
C     3.87584  -1.46900  -2.19408
C     0.19140   0.70013  -0.57992
C    -0.31014   2.11289  -0.24620
C     0.29889   0.54431  -2.09283
H    -4.97063  -1.91256  -2.14094
H    -6.44801  -0.94717  -1.52391
H    -4.62200   1.63238   0.00283
H    -6.18133   0.77012   0.12184
H    -4.86666   0.43915   1.28411
H    -2.78244  -1.49621  -1.33674
H    -2.51733   0.72994   0.77732
H    -0.60297  -1.33337  -0.49343
H     3.07974   1.51356   2.39449
H     1.57670   2.41771   2.19561
H     3.13562   3.16639   1.67417
H     3.40334   0.52493  -1.54094
H     3.15742  -1.90324  -2.90950
H     4.28153  -2.28722  -1.58124
H     4.69572  -1.00293  -2.75395
H    -0.42090   2.27265   0.83649
H     0.37514   2.87435  -0.64328
H    -1.29058   2.27757  -0.71459
H    -0.68310   0.74902  -2.54653
H     1.02213   1.26032  -2.50971
H     0.59650  -0.47236  -2.38725
