23
Generated by autodE on: 2022-06-18. E = -351.521383 Ha
C     3.28500  -1.81502  -0.46286
C     2.45479  -0.76638  -0.27077
C     2.98560   0.63783  -0.13452
C     1.01148  -0.98260  -0.19132
C     0.07619  -0.01739  -0.00535
C    -1.34547  -0.28653   0.06598
C    -2.34003   0.61952   0.24374
C    -3.77680   0.18316   0.29898
C    -2.12338   2.09796   0.39992
H     4.36851  -1.68135  -0.52614
H     2.89698  -2.83356  -0.56154
H     2.69835   1.07886   0.83448
H     2.57057   1.29719  -0.91490
H     4.08178   0.65841  -0.21205
H     0.67645  -2.02177  -0.29415
H     0.40235   1.02104   0.09839
H    -1.63379  -1.33978  -0.03630
H    -4.23968   0.48100   1.25705
H    -4.36749   0.67965  -0.49185
H    -3.88578  -0.90520   0.18330
H    -1.06959   2.39904   0.34032
H    -2.68281   2.64975  -0.37603
H    -2.52539   2.44264   1.36917
