19
Generated by autodE on: 2022-06-18. E = -585.858005 Ha
C    -3.80836  -0.50059  -0.47992
N    -2.57058   0.23151  -0.29160
C    -1.39003  -0.41493  -0.23233
O    -1.31592  -1.64829  -0.33046
C    -0.14210   0.37893  -0.03429
N     0.92322  -0.37364   0.14490
C     1.91051  -0.98547   0.30867
C     3.04611  -1.70178   0.50736
N     4.02536  -2.32044   0.67863
C     0.15154   1.82766  -0.01607
C    -0.95490   2.82030  -0.25632
O     1.30456   2.20598   0.18641
H    -4.63474   0.21770  -0.54224
H    -3.78196  -1.09352  -1.40729
H    -4.00015  -1.19144   0.35683
H    -2.61569   1.23401  -0.16825
H    -1.49839   2.60021  -1.18737
H    -1.67287   2.80846   0.58081
H    -0.51437   3.82321  -0.32008
