51
Generated by autodE on: 2022-06-22. E = -1224.850986 Ha
C     3.81866   3.65214  -0.28003
C     3.70061   2.35360   0.06370
C     4.81338   1.61326   0.75720
C     2.45765   1.63398  -0.23711
C     2.21718   0.34415   0.04738
C     0.95601  -0.39509  -0.28052
N    -0.07935   0.42487  -0.94212
C    -0.27099   0.31141  -2.29993
O    -1.32616   0.45174  -2.89779
O     0.90721   0.09749  -2.91503
C     0.85880  -0.04817  -4.33830
N    -1.17080   0.54696  -0.04529
C    -2.31731   1.34804  -0.43958
C    -1.29019  -0.77537   0.57813
C    -2.14101  -0.84672   1.83893
O    -2.47144  -1.91415   2.31414
O    -2.41557   0.32758   2.38453
C    -3.12808   0.31150   3.63405
C    -1.86980  -1.71990  -0.48560
O    -1.21727  -2.31410  -1.31977
O    -3.20222  -1.65867  -0.50286
C    -3.86478  -2.29091  -1.61129
C     0.22008  -1.04418   0.95438
C     0.57902  -2.52044   1.12075
C     0.55947  -0.30730   2.26064
H     3.00258   4.18014  -0.78288
H     4.72966   4.21890  -0.06804
H     5.14326   0.74531   0.16220
H     4.47893   1.21744   1.73066
H     5.68122   2.26575   0.92794
H     1.67554   2.21336  -0.73810
H     2.98252  -0.27012   0.52977
H     1.21673  -1.21252  -0.96536
H     1.89427  -0.21536  -4.65746
H     0.46128   0.86232  -4.80935
H     0.23413  -0.90867  -4.61959
H    -2.88152   1.59438   0.46758
H    -1.94382   2.28427  -0.87563
H    -2.99077   0.86966  -1.16533
H    -4.10018  -0.18562   3.51084
H    -2.53759  -0.21385   4.39789
H    -3.26642   1.36193   3.91236
H    -4.93587  -2.11631  -1.46062
H    -3.64959  -3.36856  -1.62126
H    -3.52895  -1.83634  -2.55427
H     1.64275  -2.60640   1.39054
H     0.40750  -3.09623   0.20436
H    -0.01162  -2.96827   1.93371
H     0.04562  -0.77154   3.11559
H     0.28994   0.75492   2.21798
H     1.63717  -0.38002   2.45770
