23
Generated by autodE on: 2022-06-22. E = -351.521382 Ha
C    -3.56788   0.41123   1.18212
C    -2.55782   0.23792   0.30146
C    -2.82202   0.09411  -1.17561
C    -1.17664   0.18597   0.77654
C    -0.07829   0.01148  -0.00063
C     1.27088  -0.03369   0.52535
C     2.41747  -0.21327  -0.17793
C     3.75000  -0.23525   0.51627
C     2.47957  -0.40207  -1.66710
H    -3.37259   0.51499   2.25395
H    -4.61039   0.45327   0.85459
H    -2.30771   0.88258  -1.74987
H    -3.89738   0.15235  -1.39539
H    -2.44277  -0.86921  -1.55529
H    -1.03821   0.29879   1.85860
H    -0.20787  -0.10199  -1.08043
H     1.35905   0.09179   1.61137
H     4.27077  -1.19250   0.33375
H     3.65587  -0.09198   1.60273
H     4.41281   0.55297   0.11596
H     1.49669  -0.39270  -2.15534
H     3.09966   0.38789  -2.12670
H     2.97490  -1.35872  -1.91008
