28
Generated by autodE on: 2022-07-27. E = -873.287917 Ha
C     1.78985   0.80170  -4.44225
O     1.46461   0.09379  -3.24381
C     1.04955   0.84731  -2.20408
O     0.97370   2.06853  -2.26016
N     0.68844   0.01359  -1.17976
N     0.50857   0.54249   0.02338
C     1.29595   1.71787   0.48413
C    -0.31541  -0.10310   0.82666
C    -0.67904   0.17291   2.22923
O    -1.42523  -0.59798   2.81151
O    -0.19039   1.28289   2.76503
C    -0.55802   1.55871   4.12879
C    -1.05816  -1.26953   0.22188
O    -2.12688  -1.15239  -0.33299
O    -0.41126  -2.40935   0.41447
C    -1.02600  -3.59873  -0.11584
H     0.91441   1.34798  -4.82483
H     2.10222   0.04093  -5.16788
H     2.61077   1.51326  -4.26784
H     0.66276   2.61170   0.45738
H     1.63196   1.52435   1.50418
H     2.14996   1.83673  -0.18378
H    -0.22007   0.74473   4.78516
H    -1.64802   1.67269   4.21047
H    -0.05322   2.49593   4.38718
H    -0.35461  -4.42443   0.14401
H    -1.12806  -3.51539  -1.20712
H    -2.01488  -3.74935   0.33951
