25
Generated by autodE on: 2022-05-25. E = -884.997756 Ha
C     4.94852  -0.77291   0.59267
O     3.81722  -0.39767  -0.21120
C     2.69684  -0.12988   0.44795
O     2.55041  -0.16812   1.65443
N     1.65608   0.21637  -0.39518
N     1.76117   0.23189  -1.76286
N     0.69626   0.57573  -2.30453
C    -0.35911   0.81031  -1.30625
C    -1.42092  -0.33563  -1.34805
O    -0.72962  -1.39344  -0.69416
C    -0.47774  -0.72816   0.53875
C    -1.87542  -0.21550   0.89753
C    -2.35170   0.06028   2.19935
N    -2.72289   0.27383   3.28122
C    -2.47026   0.03638  -0.29465
C    -3.72365   0.63847  -0.54795
N    -4.75255   1.12902  -0.78144
C     0.31411   0.53620   0.06167
H     4.72480  -1.68283   1.16730
H     5.76440  -0.96066  -0.11426
H     5.21860   0.04272   1.27818
H    -0.80265   1.80048  -1.45319
H    -1.78493  -0.61513  -2.34050
H     0.02843  -1.36531   1.26891
H     0.31177   1.35271   0.79080
