25
Generated by autodE on: 2022-05-25. E = -884.909072 Ha. Imaginary frequency = -349.5 cm-1
C     3.95328  -0.72032   1.89971
O     2.99123   0.09743   1.21525
C     3.04219   0.07991  -0.11516
O     3.83230  -0.54975  -0.78497
N     2.02525   0.91231  -0.59046
N     1.76548   0.92960  -1.82952
N     0.86978   1.13891  -2.53426
C    -0.74736   1.26245  -1.02882
C    -1.35966  -0.12529  -1.29446
O    -0.35320  -0.97807  -0.74347
C    -0.30197  -0.36834   0.54654
C    -1.80374  -0.47621   0.94260
C    -2.31021  -0.61867   2.25114
N    -2.70120  -0.74158   3.34105
C    -2.47363  -0.32345  -0.22380
C    -3.86459  -0.26836  -0.45094
N    -5.00783  -0.22187  -0.66692
C    -0.07208   1.10452   0.16482
H     3.82645  -1.77585   1.61986
H     4.97437  -0.39275   1.65780
H     3.75317  -0.58410   2.96837
H    -1.14141   2.19013  -1.43925
H    -1.62607  -0.38802  -2.32189
H     0.41314  -0.84613   1.22095
H     0.21245   1.87464   0.87741
