29
Generated by autodE on: 2022-06-16. E = -708.723988 Ha
C     0.15713   2.36174   1.34029
C     0.18301   1.74892  -0.02677
O     0.11779   2.40450  -1.05134
C     0.27800   0.21238  -0.11243
C    -1.13799  -0.33312  -0.30207
C    -1.72609  -1.16525   0.65817
C    -3.01960  -1.66200   0.46450
C    -3.73938  -1.32749  -0.68492
C    -3.15805  -0.49015  -1.64370
C    -1.86693   0.00483  -1.45363
C     1.26041  -0.23519  -1.22354
C     1.98157  -1.41914  -0.58306
C     2.04654  -0.97568   0.88161
C     3.17878  -0.05747   1.14148
N     4.04519   0.68653   1.34683
O     0.82169  -0.29798   1.12026
H     1.14887   2.23897   1.80564
H    -0.08911   3.42887   1.26729
H    -0.56381   1.83673   1.98529
H    -1.16602  -1.42903   1.55466
H    -3.46431  -2.31536   1.21909
H    -4.74935  -1.71628  -0.83469
H    -3.71226  -0.22135  -2.54613
H    -1.42160   0.66305  -2.20168
H     1.96820   0.57604  -1.44650
H     0.73827  -0.49822  -2.15079
H     1.37215  -2.33244  -0.63413
H     2.96963  -1.62202  -1.01602
H     2.12744  -1.81549   1.58745
