23
Generated by autodE on: 2022-07-27. E = -629.977499 Ha
C     0.70948   2.22088  -1.31221
C     0.97253   1.39163  -0.08264
O     1.82742   1.74421   0.73780
C     0.21209   0.16985   0.16896
O     0.60174  -0.64658   1.13354
C     1.65626  -0.86133   1.87445
C     2.94086  -0.32364   1.70577
N     4.07199  -0.02947   1.63735
C    -1.05027  -0.24685  -0.44595
C    -1.36589  -1.62290  -0.50169
C    -2.56639  -2.05678  -1.05943
C    -3.47950  -1.13094  -1.57644
C    -3.18290   0.23456  -1.52017
C    -1.98538   0.67696  -0.95856
H     1.65564   2.70166  -1.59835
H     0.31592   1.63272  -2.15093
H    -0.01072   3.02218  -1.07908
H     1.51751  -1.68153   2.58076
H    -0.65179  -2.35163  -0.11484
H    -2.78779  -3.12584  -1.09867
H    -4.41880  -1.47206  -2.01742
H    -3.89668   0.96639  -1.90512
H    -1.79766   1.74727  -0.89056
