29
Generated by autodE on: 2022-06-16. E = -708.612271 Ha. Imaginary frequency = -222.2 cm-1
C     0.46114   2.30146  -1.29920
C     0.65221   1.55066  -0.00544
O     1.39641   1.99375   0.87200
C    -0.04203   0.27758   0.20957
C    -1.33944  -0.10887  -0.36181
C    -1.67607  -1.47780  -0.43322
C    -2.90019  -1.88265  -0.95995
C    -3.81508  -0.93181  -1.42830
C    -3.49702   0.42726  -1.35446
C    -2.27425   0.83906  -0.82171
C     1.75316  -0.81998  -1.31909
C     2.38867  -1.62980  -0.43300
C     1.48191  -0.83436   1.75664
C     2.60652  -0.01223   1.99865
N     3.63153   0.47358   2.28221
O     0.33084  -0.51723   1.20492
H     1.43800   2.71106  -1.59527
H     0.05410   1.68266  -2.10788
H    -0.21403   3.15590  -1.13009
H    -0.95997  -2.22243  -0.08149
H    -3.14033  -2.94702  -1.01357
H    -4.77312  -1.25021  -1.84548
H    -4.21080   1.17706  -1.70303
H    -2.06292   1.90486  -0.74173
H     2.22408   0.09938  -1.67615
H     0.84098  -1.13585  -1.82793
H     3.39745  -1.40393  -0.08149
H     1.99637  -2.62137  -0.19305
H     1.41320  -1.74383   2.35721
