23
Generated by autodE on: 2022-06-05. E = -554.982744 Ha
C     3.48389   1.49246  -0.50363
N     2.12391   1.04546  -0.73012
C     1.49544   0.22271   0.13675
O     2.05881  -0.20929   1.15802
C     0.10711  -0.16686  -0.15567
C    -0.93827   0.48028  -0.70838
C    -1.10689   1.82028  -1.32134
C    -2.14878  -0.44821  -0.41656
C    -2.41445  -0.35784   1.10294
C    -1.37864  -0.98960   1.66430
C    -0.50302  -1.44386   0.47582
O    -1.51775  -1.73647  -0.50097
H     3.57568   2.01608   0.46085
H     4.19112   0.64681  -0.49539
H     3.76956   2.18177  -1.30753
H     1.64960   1.31884  -1.58292
H    -1.91370   2.36428  -0.79955
H    -1.42427   1.72926  -2.37457
H    -0.19306   2.42750  -1.28175
H    -3.00796  -0.35539  -1.09045
H    -3.24558   0.17341   1.56531
H    -1.12521  -1.12114   2.71569
H     0.17844  -2.28493   0.63909
