26
Generated by autodE on: 2022-06-05. E = -760.748386 Ha
C     5.36862  -0.38607  -0.16380
N     4.00663   0.10672  -0.14651
C     2.93365  -0.69859  -0.06700
O     2.95590  -1.93391   0.00543
C     1.63123  -0.01157  -0.06515
N     0.46796  -0.62623   0.01662
C    -0.57462   0.27559   0.00227
C    -1.97904  -0.08205   0.07779
C    -2.39160  -1.42868   0.17319
C    -3.74549  -1.75469   0.24317
C    -4.72050  -0.75133   0.22058
C    -4.32244   0.58665   0.12711
C    -2.97105   0.92311   0.05609
C     0.01969   1.56262  -0.09782
O    -0.37957   2.71486  -0.15085
O     1.43884   1.30059  -0.13673
H     5.35271  -1.47720  -0.06194
H     5.94803   0.04255   0.66827
H     5.86961  -0.12326  -1.10866
H     3.85010   1.10914  -0.20707
H     0.39875  -1.64271   0.08254
H    -1.65286  -2.23297   0.19295
H    -4.04055  -2.80424   0.31578
H    -5.78021  -1.01025   0.27546
H    -5.07307   1.38067   0.10888
H    -2.67055   1.96802  -0.01704
