49
Generated by autodE on: 2022-06-05. E = -1315.730334 Ha. Imaginary frequency = -346.5 cm-1
C     5.73007  -0.94973  -1.05757
N     4.29077  -0.83944  -0.93898
C     3.50762  -1.93325  -0.78659
O     3.99916  -3.07513  -0.75994
C     2.06344  -1.67724  -0.64854
C     1.10279  -2.51132  -0.19023
C     1.13053  -3.90804   0.30490
C    -0.17419  -1.64189  -0.14147
O     0.04909  -0.78060  -1.27249
C     1.34404  -0.32018  -0.84861
C     1.00087   0.22835   0.55515
C     0.03255  -0.65647   1.02012
C    -1.97124   0.77033   0.57664
C    -3.07585  -0.12654   0.27662
C    -3.79063  -0.74956   1.32084
C    -4.81565  -1.65032   1.03447
C    -5.15044  -1.94733  -0.29112
C    -4.44810  -1.33238  -1.33282
C    -3.41957  -0.43217  -1.05613
N    -1.25648   1.46965  -0.35754
C    -0.17534   2.00592   0.26380
C     0.73329   2.94150  -0.43803
O     0.85365   2.85879  -1.66787
N     1.42617   3.78694   0.33750
C     2.40244   4.70312  -0.22097
O    -0.50361   2.17248   1.58088
C    -1.57677   1.30916   1.86058
O    -1.97462   1.16194   3.00157
H     6.01168  -1.57773  -1.91763
H     6.17722  -1.39833  -0.15534
H     6.15264   0.05244  -1.19901
H     3.87543   0.08502  -0.92956
H     0.74115  -3.94189   1.33785
H     0.45689  -4.54108  -0.29858
H     2.14012  -4.33321   0.28124
H    -1.13191  -2.16971  -0.20621
H     1.77075   0.38376  -1.57100
H     1.74189   0.72960   1.17813
H    -0.19612  -0.89749   2.05693
H    -3.53210  -0.52265   2.35443
H    -5.35788  -2.12532   1.85541
H    -5.95393  -2.65375  -0.51124
H    -4.70119  -1.55572  -2.37176
H    -2.88538   0.03238  -1.88640
H    -1.17519   1.17820  -1.33016
H     1.22425   3.81395   1.33228
H     3.13062   4.16119  -0.84291
H     2.93300   5.19862   0.60050
H     1.92226   5.47109  -0.84859
