40
Generated by autodE on: 2022-05-29. E = -1304.518324 Ha
C    -1.77690   1.87823  -0.75687
C    -1.11126   0.83930   0.13801
C    -2.01386  -0.32326   0.54771
C    -3.30346  -0.49365   0.02911
C    -4.08751  -1.58568   0.41936
C    -3.59283  -2.51499   1.33608
C    -2.30455  -2.35144   1.85952
C    -1.52079  -1.26824   1.46330
O    -0.68103   1.55031   1.35610
N     0.74189   1.43844   1.46101
C     1.14447   1.20737   2.71359
N     1.52658   1.10565   3.81209
C     1.22197   0.67188   0.35898
C     0.20143   0.33646  -0.43872
C     0.22367  -0.42131  -1.72438
Cl    0.96388  -2.10790  -1.47184
C     0.87973   0.25832  -2.92679
C     2.36247   0.64405  -2.85334
C     2.71033   1.84489  -1.94578
C     3.39602   1.50613  -0.61752
C     2.68418   0.42447   0.21584
H    -2.07399   1.43271  -1.71694
H    -1.06394   2.69041  -0.95483
H    -2.67150   2.29671  -0.27329
H    -3.70992   0.22108  -0.68653
H    -5.09058  -1.70547   0.00321
H    -4.20580  -3.36628   1.64151
H    -1.90762  -3.07524   2.57523
H    -0.51257  -1.16006   1.86896
H    -0.81159  -0.65879  -1.99629
H     0.72411  -0.40672  -3.79081
H     0.28008   1.16504  -3.12062
H     2.96013  -0.24051  -2.57639
H     2.66254   0.88633  -3.88462
H     3.37897   2.52873  -2.49255
H     1.79365   2.42504  -1.74692
H     4.42187   1.14910  -0.80769
H     3.48885   2.42730  -0.01924
H     3.15319   0.35136   1.20952
H     2.80014  -0.55578  -0.26505
