20
Generated by autodE on: 2022-05-29. E = -532.635292 Ha
C     0.91309  -2.15957  -0.42291
C     0.44875  -0.79348  -0.12302
O     1.28252   0.05167   0.36713
N     2.62051  -0.38060   0.59584
C     3.26585   0.65381   1.09195
N     3.95819   1.49598   1.54050
C    -0.89471  -0.27766  -0.32950
C    -1.91799  -1.10860  -0.83394
C    -3.20126  -0.60144  -1.02584
C    -3.48262   0.73362  -0.72104
C    -2.47404   1.56817  -0.21974
C    -1.19159   1.07213  -0.02350
H     1.76482  -2.09474  -1.12115
H     1.31977  -2.60498   0.50082
H     0.12999  -2.79709  -0.83920
H    -1.71736  -2.15148  -1.07655
H    -3.98587  -1.25265  -1.41579
H    -4.48990   1.12750  -0.87386
H    -2.69384   2.61108   0.01708
H    -0.40750   1.72197   0.36537
