20
Generated by autodE on: 2022-05-29. E = -771.777623 Ha
Cl   -0.81014   1.58670  -2.15799
C    -0.11970   0.18155  -1.17888
C     0.88512   0.62747  -0.22886
C     1.40062   0.60419   0.87208
C     1.60650   0.09454   2.22582
C     0.46266  -0.93449   2.45302
C     0.30723  -1.95502   1.29911
C    -0.89217  -1.81524   0.32952
C    -1.24648  -0.48629  -0.37141
H     0.29768  -0.49847  -1.93447
H     2.59025  -0.39703   2.31158
H     1.57775   0.89114   2.98598
H    -0.47986  -0.38211   2.60186
H     0.66888  -1.46148   3.39811
H     0.20836  -2.96111   1.73815
H     1.24447  -1.98717   0.72041
H    -1.80642  -2.10216   0.87723
H    -0.76127  -2.58673  -0.44887
H    -2.08347  -0.68816  -1.05857
H    -1.60434   0.25355   0.36150
