20
Generated by autodE on: 2022-10-21. E = -661.174002 Ha
C    -3.28691   0.46472  -0.05346
N    -2.63621  -0.21006  -1.16353
C    -1.34661  -0.59263  -1.27284
O    -0.97076  -1.39040  -2.14631
C    -0.37879  -0.01127  -0.32130
C    -0.26978   1.32640   0.15330
O    -0.91470   2.34881   0.04764
O     0.95661   1.33590   0.89881
C     1.50103   0.12162   0.82447
C     2.70525  -0.19536   1.48276
N     3.70433  -0.44427   2.02699
N     0.74534  -0.69215   0.09787
C     1.05824  -2.09605  -0.17671
H    -3.37725   1.54883  -0.21440
H    -2.73129   0.29550   0.87830
H    -4.29404   0.04324   0.07047
H    -3.23317  -0.57741  -1.90077
H     0.19165  -2.71048   0.09408
H     1.92798  -2.38651   0.42263
H     1.26907  -2.21177  -1.24486
