18
Generated by autodE on: 2022-10-21. E = -514.386964 Ha
C     2.65311  -0.88004   0.52034
O     1.46767  -1.41671  -0.08812
C     0.43598  -0.61994  -0.25159
C     0.17327   0.68780   0.03463
C     0.92780   1.69463   0.65173
N     1.51308   2.57253   1.15594
C    -1.32429   0.83790  -0.38846
C    -2.16856   0.00948   0.60000
C    -1.87949  -1.26544   0.32095
C    -0.87235  -1.18795  -0.84353
O    -1.34143  -0.02460  -1.53927
H     3.37839  -1.70087   0.55587
H     2.42907  -0.52921   1.53838
H     3.04852  -0.05335  -0.08806
H    -1.65285   1.85579  -0.62025
H    -2.79887   0.42473   1.38562
H    -2.19758  -2.18289   0.81399
H    -0.75481  -2.06235  -1.49183
