38
Generated by autodE on: 2022-10-21. E = -1175.560442 Ha. Imaginary frequency = -362.7 cm-1
C    -3.55761   2.88469   1.75894
N    -2.88952   1.62261   1.51523
C    -2.82780   1.09206   0.28055
O    -3.33751   1.62305  -0.71463
C    -2.04750  -0.16353   0.19076
C    -1.48087  -0.89435   1.30249
O    -1.42137  -0.66852   2.49465
O    -0.93699  -2.04687   0.74364
C    -1.03004  -1.91030  -0.61763
C    -0.78473  -3.07284  -1.40538
N    -0.50735  -3.99309  -2.05860
C     0.63281  -0.57773  -0.95579
C     1.81282  -1.01406  -0.06447
O     1.36493  -0.60658   1.23012
C     1.09866   0.75900   0.88611
C     2.49275   1.17426   0.31771
C     3.01978   2.47184   0.38609
N     3.41259   3.56880   0.48035
C     2.92422   0.03239  -0.29692
O     3.97368  -0.29247  -1.01413
C     4.96177   0.71722  -1.27847
C     0.17841   0.58528  -0.32622
N    -2.02110  -1.00489  -0.89563
C    -2.38843  -0.65515  -2.26317
H    -4.63240   2.82287   1.52424
H    -3.12378   3.68788   1.14274
H    -3.44164   3.14750   2.81711
H    -2.46173   1.11097   2.28540
H     0.65298  -0.72473  -2.03665
H     2.12925  -2.06172  -0.09817
H     0.72788   1.33833   1.73719
H     5.74065   0.23345  -1.87851
H     5.38715   1.08486  -0.33333
H     4.51054   1.54688  -1.84185
H    -0.30555   1.42678  -0.81907
H    -1.75009   0.16056  -2.63297
H    -3.43357  -0.33471  -2.28728
H    -2.26001  -1.54212  -2.89506
