33
Generated by autodE on: 2022-05-29. E = -3301.708835 Ha
C     3.97619  -0.11578   0.95211
C     2.74741  -0.31503   0.14502
C     1.90605   0.54715  -0.44400
Br    1.95596   2.42870  -0.45442
C     0.71697  -0.25884  -0.95932
O     1.36285  -1.49477  -1.30240
C     2.04724  -1.66525  -0.04579
C     0.85728  -1.70152   0.94634
N     0.14300  -2.99314   0.95950
N    -1.25755  -2.71097   0.84547
C    -1.36610  -1.51678  -0.02110
C    -2.69146  -0.80526   0.11476
C    -3.83808  -1.49395   0.54297
C    -5.07085  -0.84131   0.63951
C    -5.18140   0.51026   0.30137
C    -4.04767   1.20403  -0.13337
C    -2.81475   0.55260  -0.22334
C    -0.11282  -0.67157   0.28695
H     4.81882  -0.69504   0.53872
H     4.26303   0.94438   0.99855
H     3.81817  -0.47838   1.98288
H     0.15526   0.14973  -1.80675
H     2.68868  -2.55525  -0.05779
H     1.16133  -1.41648   1.96289
H     0.39217  -3.49474   0.10546
H    -1.57507  -2.44259   1.78069
H    -1.27642  -1.87855  -1.06123
H    -3.76554  -2.55171   0.80004
H    -5.94972  -1.39493   0.97939
H    -6.14463   1.02061   0.37606
H    -4.12122   2.26080  -0.40190
H    -1.94119   1.11112  -0.56512
H    -0.34273   0.18358   0.93394
