17
Generated by autodE on: 2022-07-26. E = -381.183146 Ha
N     2.99166  -2.11986  -0.45014
N     1.85554  -1.52475  -0.21453
C     1.43764  -0.28717  -0.44522
C     0.11672   0.19430  -0.10480
C    -0.88049  -0.59579   0.51678
C    -2.13158  -0.06009   0.81633
C    -2.43301   1.27289   0.50903
C    -1.45838   2.06644  -0.10676
C    -0.20442   1.53820  -0.40916
H     3.59488  -1.41171  -0.89306
H     1.17295  -2.14752   0.23097
H     2.16011   0.37992  -0.92121
H    -0.68513  -1.64099   0.77105
H    -2.88239  -0.69253   1.29675
H    -3.41558   1.68640   0.74674
H    -1.67718   3.10832  -0.35410
H     0.55013   2.16611  -0.88985
