63
Generated by autodE on: 2022-10-23. E = -1491.282635 Ha
C     4.79502   1.79179  -8.64811
N     3.84206   2.42753  -7.75695
C     2.53011   2.44180  -8.03414
O     2.08788   1.98208  -9.09436
C     1.56310   3.01742  -6.95179
C     1.71390   4.53135  -6.72812
C     2.71681   5.31903  -7.30434
C     2.78028   6.69219  -7.04421
C     1.83847   7.29681  -6.20957
C     0.83079   6.51738  -5.62983
C     0.77575   5.14715  -5.88380
C     0.14171   2.61542  -7.39349
C    -0.34958   1.62926  -6.62066
C     0.70250   1.25477  -5.58328
C     1.31714  -0.11381  -5.91333
O     2.10695  -0.30307  -6.81598
O     0.93181  -1.06140  -5.05678
C     1.40015  -2.39323  -5.31509
N     1.64847   2.33475  -5.66094
C     2.86146   2.25679  -4.88700
C    -1.62148   0.77777  -6.63368
C    -2.15862   0.63104  -5.20072
O    -1.10930  -0.47493  -7.15772
C    -1.80279  -1.66748  -6.84185
C    -2.76271   1.22638  -7.55910
C    -3.49560   2.52059  -7.20553
C    -2.62593   3.75955  -7.01089
C    -1.77357   4.19932  -8.19603
C    -0.51987   3.30658  -8.59222
C    -0.81840   2.32562  -9.66016
N    -1.01761   1.61999 -10.55840
C     0.37954   4.24448  -9.30740
N     0.95371   5.01858  -9.95069
H     5.80274   1.91047  -8.23163
H     4.57532   0.71719  -8.75400
H     4.76580   2.24724  -9.65005
H     4.17878   2.82119  -6.88667
H     3.44710   4.87646  -7.97980
H     3.57032   7.29019  -7.50436
H     1.88651   8.37019  -6.01157
H     0.08554   6.97859  -4.97748
H    -0.00799   4.54172  -5.42614
H     0.28245   1.18671  -4.56905
H     2.49636  -2.43469  -5.24057
H     1.08895  -2.71912  -6.31766
H     0.94311  -3.02994  -4.54914
H     2.60495   2.02722  -3.83999
H     3.57778   1.48469  -5.22933
H     3.37214   3.23263  -4.89114
H    -2.28222   1.62400  -4.74566
H    -1.48230   0.04459  -4.56720
H    -3.13986   0.13674  -5.20773
H    -2.87754  -1.60641  -7.08476
H    -1.35531  -2.46043  -7.45827
H    -1.69420  -1.94888  -5.78119
H    -3.49899   0.40785  -7.54514
H    -2.39325   1.25480  -8.58675
H    -4.08490   2.37057  -6.28681
H    -4.22627   2.71837  -8.00792
H    -1.98880   3.64702  -6.12122
H    -3.28878   4.61250  -6.79141
H    -1.35278   5.18465  -7.95523
H    -2.38533   4.32034  -9.10257
