34
Generated by autodE on: 2022-10-23. E = -840.577011 Ha
C    -3.87410  -2.55784  -0.09822
N    -2.77743  -1.64747  -0.35106
C    -1.59563  -1.77341   0.29813
O    -1.39117  -2.72009   1.07688
C    -0.61343  -0.69375   0.02978
C    -1.11487   0.64942  -0.34941
C    -1.98824   1.35220   0.49724
C    -2.49483   2.59771   0.11657
C    -2.13641   3.15390  -1.11426
C    -1.26824   2.45978  -1.96598
C    -0.75909   1.21830  -1.58697
N     0.70346  -0.87625   0.23289
C     1.25522  -2.24981   0.33136
C     1.57210   0.16624   0.31259
C     2.99751   0.09263   0.42769
O     3.74860  -0.88361   0.45351
O     3.50031   1.36309   0.52226
C     4.91416   1.47237   0.66722
H    -3.60701  -3.59264  -0.36648
H    -4.16428  -2.55252   0.96527
H    -4.73671  -2.24933  -0.70133
H    -2.92514  -0.85534  -0.96637
H    -2.27067   0.91535   1.45775
H    -3.17164   3.13467   0.78519
H    -2.53443   4.12640  -1.41322
H    -0.99177   2.88675  -2.93284
H    -0.08135   0.67764  -2.25167
H     1.46936  -2.48345   1.38146
H     0.53821  -2.96329  -0.07097
H     2.18754  -2.27638  -0.23517
H     1.13572   1.15935   0.29915
H     5.26139   0.96628   1.58149
H     5.13237   2.54577   0.73255
H     5.43859   1.03863  -0.19836
