29
Generated by autodE on: 2022-10-23. E = -650.599443 Ha
C    -0.16230   3.36582  -1.92408
O    -1.13501   2.35423  -1.73260
C    -0.65093   1.01468  -1.73237
C     0.01125   0.64451  -3.06411
C     0.26273   0.75116  -0.60344
C     0.78603   0.17789   0.32662
C     0.87067  -0.83444   1.38703
C     0.32835  -0.28475   2.64917
N    -0.13478   0.13273   3.62572
C     2.25267  -1.29755   1.63021
N     3.33086  -1.68772   1.79607
C    -0.01611  -2.05553   0.91692
C    -1.43291  -1.68243   0.44707
C    -1.64837  -1.33889  -1.05360
C    -1.89507   0.13143  -1.44261
H     0.23044   3.38362  -2.95506
H     0.68714   3.24885  -1.22564
H    -0.65445   4.32732  -1.71988
H     0.23557  -0.43092  -3.09382
H     0.95253   1.19033  -3.21611
H    -0.68085   0.88649  -3.88486
H    -0.06037  -2.75192   1.76687
H     0.54402  -2.54885   0.10924
H    -2.04642  -2.56836   0.66918
H    -1.84129  -0.88089   1.08560
H    -2.54480  -1.88916  -1.37666
H    -0.82273  -1.75683  -1.65299
H    -2.51628   0.17220  -2.35148
H    -2.46084   0.63644  -0.64384
