63
Generated by autodE on: 2022-10-23. E = -1491.175769 Ha. Imaginary frequency = -226.6 cm-1
C     5.07741   1.47160  -8.75060
N     4.25059   1.98609  -7.67620
C     3.12802   2.68382  -7.94270
O     2.88834   3.13735  -9.06818
C     2.27517   3.04068  -6.75871
C     2.08087   4.49593  -6.54976
C     3.07152   5.41434  -6.94455
C     2.87632   6.78644  -6.78631
C     1.68840   7.26955  -6.22824
C     0.69604   6.36774  -5.83079
C     0.88710   4.99719  -5.99452
C     0.09638   2.36071  -7.69867
C    -0.34209   1.52795  -6.89616
C     1.79809   0.86320  -5.81141
C     1.96241  -0.05604  -6.92636
O     2.13482   0.17445  -8.11493
O     1.85620  -1.32702  -6.45782
C     1.71108  -2.35351  -7.43862
N     2.12202   2.18469  -5.71669
C     1.91092   2.71563  -4.35031
C    -1.40721   0.76397  -6.20940
C    -1.62785   1.31631  -4.79722
O    -0.97249  -0.60489  -6.20474
C    -1.62017  -1.51364  -5.33730
C    -2.68758   0.85655  -7.08085
C    -3.37072   2.22078  -7.25041
C    -2.58926   3.38360  -7.89539
C    -1.81621   3.02086  -9.17521
C    -0.24724   3.04481  -8.97701
C     0.35262   2.28473 -10.09562
N     0.72514   1.64315 -10.98618
C     0.19737   4.45185  -9.09373
N     0.42225   5.57470  -9.26840
H     5.93127   0.93664  -8.31701
H     4.51051   0.77943  -9.39443
H     5.45583   2.29152  -9.37854
H     4.35111   1.56835  -6.75746
H     4.00677   5.05357  -7.37561
H     3.65856   7.48247  -7.09794
H     1.53503   8.34453  -6.10800
H    -0.24113   6.73472  -5.40597
H     0.09061   4.30751  -5.71740
H     1.66962   0.36937  -4.85184
H     2.58618  -2.39546  -8.10410
H     0.80582  -2.18382  -8.04145
H     1.61835  -3.29486  -6.88344
H     0.84114   2.85592  -4.15106
H     2.31323   1.98472  -3.64008
H     2.44250   3.66296  -4.23178
H    -0.75097   1.11337  -4.16689
H    -2.51721   0.86541  -4.33361
H    -1.77974   2.40366  -4.83858
H    -1.40166  -1.31014  -4.27492
H    -2.71563  -1.52947  -5.47504
H    -1.22698  -2.51056  -5.58502
H    -3.42802   0.17390  -6.63327
H    -2.42845   0.43058  -8.06245
H    -4.26634   2.03331  -7.86681
H    -3.75020   2.56569  -6.27475
H    -1.90233   3.83120  -7.16158
H    -3.31681   4.17366  -8.13549
H    -2.05295   3.70022 -10.00607
H    -2.06658   2.00597  -9.51176
