24
Generated by autodE on: 2022-05-28. E = -626.422338 Ha
C     3.96905  -1.13098   0.72336
O     2.55061  -1.14801   0.52466
C     1.95148   0.05321   0.45348
O     2.52048   1.13008   0.56534
N     0.62093  -0.07024   0.20411
C    -0.18849  -1.20994   0.20207
C    -1.48272  -0.88625   0.06792
C    -2.67416  -1.77258  -0.01211
C    -1.57403   0.63580  -0.08749
C    -2.64208   1.30868   0.77786
C    -1.84866   0.93558  -1.51994
N    -2.03976   1.16558  -2.64203
N    -0.21518   1.08664   0.30237
H     4.22330  -0.63986   1.67395
H     4.47192  -0.60948  -0.10418
H     4.28023  -2.18187   0.74906
H     0.26895  -2.19056   0.30895
H    -2.37959  -2.83034   0.03559
H    -3.38053  -1.57155   0.81062
H    -3.22520  -1.60623  -0.95447
H    -2.47125   1.03597   1.82864
H    -2.58112   2.40196   0.67394
H    -3.64749   0.98207   0.47503
H     0.15079   1.79720  -0.33375
