17
Generated by autodE on: 2022-05-28. E = -509.640554 Ha
C     3.78951  -0.25785   0.95310
O     2.40483  -0.53226   1.19080
C     1.53900  -0.04348   0.29410
O     1.87288   0.61047  -0.69107
N     0.25230  -0.38401   0.64649
N    -0.59555   0.09458  -0.23644
C    -1.89874  -0.06343  -0.17435
C    -2.52822  -0.82262   0.94107
C    -2.66795   0.52210  -1.21624
N    -3.33187   0.98759  -2.05258
H     3.97642   0.82628   0.94726
H     4.11237  -0.68751  -0.00682
H     4.33678  -0.72874   1.77829
H    -0.18653   0.62961  -1.02614
H    -3.61778  -0.85370   0.82508
H    -2.13011  -1.85039   0.96541
H    -2.27326  -0.35131   1.90466
