51
Generated by autodE on: 2022-06-23. E = -1134.393424 Ha
C     2.48225  -3.11198   1.17391
N     2.25651  -1.70104   0.93475
C     2.48545  -1.11841  -0.25286
O     3.10340  -1.64379  -1.17963
C     1.91833   0.32624  -0.36386
C     3.05412   1.28461   0.01883
C     2.79954   2.28845   1.09872
O     4.11392   1.19911  -0.57664
O     0.80521   0.49516   0.49958
C    -0.41474   0.05253  -0.15458
C    -1.48376   1.12586   0.05601
C    -1.15895   2.40783   0.51563
C    -2.15311   3.37750   0.68744
C    -3.48711   3.07929   0.40122
C    -3.82174   1.79710  -0.04801
C    -2.82992   0.82854  -0.21054
C    -0.87116  -1.23696   0.54168
C    -0.87884  -1.26069   1.94681
C    -1.24491  -2.41323   2.64127
C    -1.63728  -3.56045   1.94092
C    -1.66382  -3.53606   0.54584
C    -1.28067  -2.38190  -0.14981
C     0.00814  -0.15889  -1.65338
C    -1.02431   0.18157  -2.71787
C     1.35993   0.57786  -1.77907
C     1.27222   2.05399  -2.16034
H     2.62926  -3.28547   2.24812
H     1.62399  -3.71702   0.83444
H     3.37840  -3.44174   0.63281
H     1.61263  -1.21310   1.55024
H     2.02479   2.99384   0.75723
H     3.72490   2.83425   1.32249
H     2.40628   1.79492   1.99957
H    -0.12311   2.64714   0.74726
H    -1.87834   4.37121   1.04966
H    -4.26323   3.83675   0.53405
H    -4.86257   1.54637  -0.26654
H    -3.10763  -0.17207  -0.54542
H    -0.57885  -0.36752   2.49883
H    -1.22766  -2.41672   3.73380
H    -1.92485  -4.46477   2.48225
H    -1.97791  -4.42091  -0.01289
H    -1.30800  -2.39140  -1.23963
H     0.25032  -1.22512  -1.75735
H    -1.35095   1.22917  -2.66643
H    -0.59664   0.00462  -3.71713
H    -1.91730  -0.45267  -2.62040
H     1.99831   0.05689  -2.50397
H     0.66247   2.63344  -1.45366
H     0.82326   2.16109  -3.15808
H     2.27384   2.50689  -2.20497
