12
Generated by autodE on: 2022-06-23. E = -157.299001 Ha
C    -1.55306  -0.53692   0.35133
C    -0.68463   0.61818  -0.04881
C     0.64431   0.61728  -0.23935
C     1.58826  -0.53960  -0.10024
H    -2.08569  -0.31836   1.29389
H    -0.99039  -1.47127   0.48929
H    -2.33550  -0.71971  -0.40635
H    -1.21321   1.56832  -0.19849
H     1.11061   1.56657  -0.53255
H     1.08631  -1.47077   0.19928
H     2.11809  -0.72941  -1.05055
H     2.37084  -0.31937   0.64725
