39
Generated by autodE on: 2022-06-23. E = -977.017419 Ha
C    -3.78801   1.30720  -2.02963
N    -3.23795   0.83238  -0.78003
C    -2.01790   0.24414  -0.72303
O    -1.23434   0.23113  -1.69871
C    -1.68148  -0.39047   0.54223
O    -0.41684  -0.99501   0.58391
C     0.65293  -0.40448   0.14032
C     1.73658  -1.30134  -0.20905
C     3.07896  -0.85934  -0.22462
C     4.10095  -1.75068  -0.53674
C     3.80232  -3.08433  -0.83954
C     2.47471  -3.53254  -0.82680
C     1.44622  -2.65169  -0.51369
C     0.78285   1.05378   0.12741
C     1.42186   1.71256  -0.93810
C     1.57309   3.09823  -0.91090
C     1.10120   3.83277   0.18117
C     0.47238   3.17988   1.24932
C     0.29880   1.79903   1.22107
C    -2.53091  -0.65169   1.63695
C    -1.95994  -1.43442   2.80240
O    -3.72062  -0.23164   1.69317
H    -3.06020   1.94215  -2.55605
H    -4.68644   1.90387  -1.82350
H    -4.06824   0.48449  -2.71240
H    -3.83583   0.65418   0.03226
H     3.31884   0.17026   0.03925
H     5.13729  -1.40766  -0.53673
H     4.60817  -3.77865  -1.08797
H     2.24555  -4.57146  -1.07199
H     0.40842  -2.98522  -0.52567
H     1.77012   1.13851  -1.79746
H     2.05850   3.60652  -1.74648
H     1.22372   4.91801   0.20261
H     0.11590   3.75211   2.10826
H    -0.18690   1.29010   2.05434
H    -2.77937  -1.72236   3.47461
H    -1.41813  -2.33260   2.46888
H    -1.24259  -0.81246   3.36444
