51
Generated by autodE on: 2022-06-23. E = -1134.296308 Ha. Imaginary frequency = -363.0 cm-1
C     4.02280  -2.86054   0.42159
N     3.48818  -1.53690   0.65268
C     2.15673  -1.31098   0.61402
O     1.35137  -2.24334   0.46087
C     1.73459   0.11181   0.69879
C     2.65502   1.20777   0.94462
C     2.10750   2.56016   1.33003
O     3.88882   1.08208   0.80341
O     0.44355   0.46842   0.90084
C    -0.70699   0.04383   0.37163
C    -1.69466   1.13495   0.23289
C    -1.25528   2.46234   0.04492
C    -2.16560   3.50329  -0.11404
C    -3.54165   3.24521  -0.10305
C    -3.99320   1.93503   0.07701
C    -3.08294   0.89105   0.24831
C    -1.21617  -1.30864   0.72517
C    -0.99954  -1.77764   2.03256
C    -1.54612  -2.99019   2.45010
C    -2.31865  -3.75475   1.56880
C    -2.54859  -3.28841   0.27093
C    -2.01037  -2.06884  -0.14597
C     0.11153  -0.22949  -1.83355
C    -0.91238   0.56350  -2.60085
C     1.43676   0.16800  -1.74368
C     1.92197   1.52910  -2.13785
H     3.72868  -3.25407  -0.56645
H     5.11825  -2.81412   0.46842
H     3.67040  -3.57769   1.18036
H     4.08854  -0.71042   0.69210
H     1.75954   3.08178   0.42325
H     2.92464   3.14986   1.76550
H     1.26453   2.49982   2.02860
H    -0.18940   2.66986   0.01114
H    -1.79974   4.52244  -0.25822
H    -4.25623   4.06101  -0.23419
H    -5.06435   1.72160   0.09480
H    -3.45892  -0.11814   0.40850
H    -0.39403  -1.18392   2.71955
H    -1.36642  -3.34178   3.46894
H    -2.74237  -4.70781   1.89384
H    -3.15337  -3.87593  -0.42376
H    -2.20427  -1.71283  -1.15810
H    -0.06551  -1.30363  -1.76073
H    -0.84387   1.64225  -2.40710
H    -0.75355   0.41679  -3.68490
H    -1.93919   0.24665  -2.37205
H     2.19985  -0.60725  -1.67455
H     1.25436   2.32831  -1.78372
H     1.95967   1.60954  -3.24061
H     2.93619   1.72116  -1.76048
