31
Generated by autodE on: 2022-07-28. E = -821.340959 Ha
C     1.43512   1.09722  -2.94376
O     0.84667   0.98822  -1.64973
C     1.34493   0.01377  -0.82803
O     2.29697  -0.67794  -1.18543
C     0.64757  -0.06754   0.42030
C     0.95748  -1.05976   1.40807
O     1.89886  -1.85076   1.40241
O     0.04183  -1.07032   2.42360
C     0.29238  -1.97758   3.49490
N    -0.45916   0.80680   0.67912
C    -0.36600   1.69165   1.85974
C    -1.46935   0.93558  -0.13050
C    -2.50614   1.98159   0.07187
C    -1.64238  -0.01831  -1.30493
C    -1.97708   0.59495  -2.63216
O    -1.59980  -1.21664  -1.11100
H     0.89878   1.90502  -3.45617
H     1.32455   0.15921  -3.50812
H     2.50415   1.34746  -2.87109
H     0.29135  -3.01958   3.14075
H     1.25906  -1.76667   3.97761
H    -0.52191  -1.83050   4.21548
H     0.54302   1.44357   2.41111
H    -0.31188   2.73479   1.51677
H    -1.24568   1.56457   2.50276
H    -2.05097   2.98423  -0.00563
H    -2.94423   1.89978   1.07887
H    -3.30714   1.89782  -0.67090
H    -3.07305   0.57277  -2.75897
H    -1.53153  -0.01674  -3.42850
H    -1.63880   1.63601  -2.70912
