51
Generated by autodE on: 2022-06-24. E = -1279.045274 Ha. Imaginary frequency = -415.5 cm-1
C     2.80195   1.33457  -3.69097
O     2.20856   1.22027  -2.40278
C     2.54429   0.09979  -1.67627
O     3.42462  -0.65497  -2.09532
C     1.77231  -0.01791  -0.47386
C     2.21805  -0.89915   0.56303
O     3.15378  -1.70916   0.51892
O     1.51477  -0.74740   1.72667
C     2.00665  -1.42705   2.87574
C    -1.20447  -1.69400  -0.40724
C    -1.82299  -0.42181  -0.44468
C    -2.53131   0.00900   0.83617
C    -1.84672  -0.55173   2.06008
C    -1.99407   0.04389   3.41442
N    -2.84879   1.08259   3.51916
O    -1.36419  -0.38206   4.39645
C    -1.10127  -1.66755   1.95828
N    -0.86469  -2.29562   0.73343
C    -0.06323  -3.52211   0.70981
C    -0.45825   0.89348  -1.00795
C    -1.26720   2.17546  -0.92473
C    -0.29116   0.39806  -2.47282
C    -0.56799   1.38603  -3.57541
O    -0.01318  -0.75619  -2.73675
N     0.69903   0.89870  -0.24689
C     0.78267   1.79890   0.90292
H     2.40216   2.25474  -4.13503
H     2.54238   0.47275  -4.32550
H     3.89821   1.40473  -3.62141
H     1.95159  -2.51999   2.75831
H     3.05012  -1.14615   3.08585
H     1.36274  -1.11325   3.70697
H    -0.95080  -2.22705  -1.32047
H    -2.43078  -0.28855  -1.34431
H    -2.59839   1.10202   0.89032
H    -3.57985  -0.34498   0.80901
H    -2.97768   1.51727   4.42718
H    -3.39772   1.42119   2.73860
H    -0.65069  -2.14508   2.82460
H    -0.34048  -4.11733  -0.16859
H    -0.26147  -4.10236   1.61865
H     1.00725  -3.27688   0.65661
H    -0.67318   3.00943  -1.32696
H    -1.53428   2.43673   0.10358
H    -2.19298   2.09211  -1.50527
H    -1.65693   1.53831  -3.65248
H    -0.20224   0.97020  -4.52229
H    -0.11090   2.36394  -3.38216
H     1.77542   1.69955   1.35039
H     0.65023   2.84872   0.60162
H     0.03048   1.55553   1.67313
