45
Generated by autodE on: 2022-06-14. E = -1991.190736 Ha
C    -1.51163   4.81955   2.04333
O    -0.41274   3.94926   1.72781
C    -0.70501   2.81973   1.08727
O    -1.83491   2.50014   0.77444
C     0.54104   1.99992   0.71764
C     1.71149   2.25136   1.69366
C     0.92395   2.56382  -0.68021
C     2.27726   2.12636  -1.24297
C     2.58849   0.63492  -1.20217
C     1.72659  -0.30146  -2.04152
C     0.25186  -0.51734  -1.64817
Cl   -0.89781   0.56977  -2.57960
Cl   -0.16155  -2.19588  -2.30395
C    -0.07439  -0.43914  -0.17251
C     0.07584   0.54307   0.75921
C    -0.43284  -0.03386   2.05169
C    -0.47501   0.64887   3.37928
N    -0.85463  -1.24922   1.94747
C    -0.67847  -1.64175   0.55067
C    -2.00955  -1.98695   0.02964
N    -3.09213  -2.21863  -0.31288
C     0.23610  -2.89209   0.55811
O    -0.18022  -4.02284   0.61590
O     1.50844  -2.53280   0.56381
C     2.48540  -3.59015   0.59511
H    -2.22557   4.30660   2.70336
H    -2.02340   5.13760   1.12395
H    -1.07330   5.68391   2.55483
H     2.51638   1.52576   1.52102
H     1.41220   2.18502   2.74369
H     2.11625   3.25817   1.52675
H     0.11506   2.34363  -1.38076
H     0.94548   3.65955  -0.57527
H     3.07958   2.65022  -0.70058
H     2.33360   2.48154  -2.28595
H     2.60181   0.26702  -0.16503
H     3.61671   0.49398  -1.57236
H     1.74425  -0.02195  -3.10531
H     2.18708  -1.29559  -1.96518
H     0.52401   0.62989   3.84214
H    -1.16609   0.10890   4.03886
H    -0.78936   1.69866   3.31488
H     2.37504  -4.22168  -0.29741
H     2.35904  -4.19617   1.50272
H     3.46106  -3.09268   0.59562
