16
Generated by autodE on: 2022-06-14. E = -492.366310 Ha
C    -3.15083   1.89447   0.60076
C    -2.08077   0.97602   0.30723
N    -1.22957   0.22656   0.06778
C    -0.19286  -0.60649  -0.19782
C    -0.46320  -1.92058  -0.62266
N    -0.67881  -3.01424  -0.97637
C     1.16945  -0.14818  -0.04427
O     2.15767  -0.83919  -0.26383
O     1.24139   1.13422   0.37058
C     2.55524   1.67126   0.55311
H    -4.10403   1.37053   0.42119
H    -3.10643   2.20888   1.65511
H    -3.09365   2.77196  -0.06213
H     2.41520   2.70674   0.88597
H     3.12036   1.65308  -0.39061
H     3.10787   1.10281   1.31592
