29
Generated by autodE on: 2022-06-14. E = -1498.720081 Ha
C    -2.91306   3.23193   0.01395
O    -2.06476   2.09613  -0.21925
C    -1.82555   1.77125  -1.48904
O    -2.29086   2.36999  -2.43608
C    -0.84943   0.60345  -1.62863
C    -1.27274  -0.27827  -2.81566
C    -0.70194  -0.18720  -0.41089
C    -0.18477  -0.84280   0.46809
C     0.93465  -1.35500   1.22125
Cl    1.16763  -0.32825   2.72368
Cl    0.66214  -3.07264   1.77005
C     2.19818  -1.28833   0.34642
C     2.43699   0.05765  -0.36670
C     1.77830   0.28123  -1.75723
C     0.57356   1.23892  -1.85802
H    -3.90727   3.06289  -0.42353
H    -2.46761   4.13692  -0.42348
H    -2.98839   3.33283   1.10263
H    -1.34255   0.33745  -3.72263
H    -0.53471  -1.07496  -2.97981
H    -2.25161  -0.74230  -2.62634
H     3.05162  -1.53912   0.99359
H     2.10498  -2.09342  -0.39924
H     3.52614   0.12058  -0.51018
H     2.18342   0.88573   0.31532
H     2.55179   0.71601  -2.40858
H     1.52901  -0.69019  -2.21487
H     0.54523   1.69591  -2.85908
H     0.70271   2.05835  -1.13282
