45
Generated by autodE on: 2022-06-14. E = -1991.082657 Ha. Imaginary frequency = -318.3 cm-1
C    -1.47269   4.85224   2.39263
O    -0.40782   4.09174   1.80003
C    -0.75391   3.01853   1.09213
O    -1.90612   2.66606   0.93399
C     0.44772   2.32504   0.44429
C     1.73698   2.47135   1.27033
C     0.57878   3.01935  -0.95690
C     1.86033   2.76399  -1.75872
C     2.26877   1.32003  -2.08391
C     1.18758   0.44427  -2.74519
C     0.62560  -0.64105  -1.81543
Cl   -0.68109  -1.54079  -2.70618
Cl    1.97764  -1.84962  -1.46605
C     0.15195  -0.08378  -0.55638
C     0.12687   0.88853   0.21220
C    -0.87159   0.10925   2.17677
C    -0.92011   0.92427   3.39187
N    -1.21422  -0.95287   1.74991
C    -1.23095  -1.84140   0.75753
C    -2.44445  -1.99152   0.02840
N    -3.45396  -2.09771  -0.54269
C    -0.25432  -2.94346   0.72649
O    -0.35632  -3.90877  -0.00819
O     0.74419  -2.75397   1.59518
C     1.75927  -3.76489   1.63576
H    -2.16285   5.21427   1.61760
H    -0.99265   5.69612   2.90089
H    -2.02266   4.23446   3.11697
H     2.55336   1.91607   0.79145
H     1.60763   2.07357   2.28601
H     2.02611   3.52846   1.34066
H    -0.30839   2.73777  -1.54408
H     0.51132   4.10637  -0.78834
H     2.70911   3.24613  -1.24793
H     1.73401   3.31282  -2.70773
H     2.64022   0.81936  -1.17779
H     3.13507   1.37134  -2.76103
H     0.32827   1.05326  -3.06612
H     1.57340  -0.06393  -3.63998
H    -0.77347   0.27562   4.26936
H    -1.92076   1.38178   3.44540
H    -0.17182   1.72396   3.39337
H     2.24429  -3.86481   0.65465
H     1.32755  -4.73239   1.93071
H     2.48641  -3.43065   2.38469
