41
Generated by autodE on: 2022-06-19. E = -1027.885411 Ha
C     5.23628   0.13327  -1.40437
N     4.00546   0.07246  -0.64926
C     3.17323  -0.97685  -0.63603
O     3.34496  -2.02166  -1.28014
C     1.94765  -0.82236   0.27192
N     1.84553   0.51757   0.88293
C     0.76346   1.26739   0.23960
C    -0.38507   1.51710   1.20393
O    -0.46221   1.04209   2.32125
O    -1.28589   2.35498   0.69505
C    -2.49892   2.54689   1.43921
C     0.37737   0.39235  -1.01042
C     0.64519  -1.03541  -0.51410
C    -0.49067  -1.56837   0.37873
C    -1.84697  -1.03138  -0.01305
C    -3.07612  -1.50773   0.63585
N    -2.94165  -2.53828   1.50748
O    -4.19961  -0.99685   0.43567
C    -1.97754  -0.03793  -0.94053
N    -0.94123   0.58036  -1.55981
C    -1.15562   1.73790  -2.41009
H     6.11894   0.09028  -0.74502
H     5.27529  -0.71879  -2.09456
H     5.28810   1.06521  -1.98740
H     3.71833   0.84233  -0.04622
H     2.06280  -1.58877   1.05298
H     1.63437   0.42887   1.87510
H     1.09167   2.25870  -0.10981
H    -2.27888   2.88473   2.46119
H    -3.06820   1.60579   1.46953
H    -3.06641   3.31228   0.89785
H     1.10412   0.63974  -1.79621
H     0.79990  -1.70593  -1.36836
H    -0.47652  -2.66994   0.31782
H    -0.28575  -1.32409   1.43512
H    -3.76727  -2.87996   1.98663
H    -2.05535  -2.99384   1.68174
H    -2.97443   0.30613  -1.22193
H    -2.18112   1.72097  -2.80180
H    -1.00639   2.68229  -1.86022
H    -0.45606   1.71674  -3.25988
