20
Generated by autodE on: 2022-06-19. E = -457.715316 Ha
C    -3.11081  -0.64504   0.04303
N    -1.82807   0.03781   0.08676
C    -1.78980   1.43788   0.08725
C    -0.64099   2.13158   0.05359
C     0.71737   1.47617   0.00948
C     0.57577  -0.03720  -0.01310
C     1.75487  -0.91596  -0.07030
N     2.96116  -0.29521  -0.09653
O     1.68393  -2.16160  -0.09536
C    -0.64702  -0.63828   0.02167
H    -3.76221  -0.29894   0.86052
H    -2.95063  -1.72431   0.15832
H    -3.63079  -0.46644  -0.91336
H    -2.76644   1.92433   0.12019
H    -0.69277   3.22274   0.06187
H     1.32703   1.80386   0.87674
H     1.28340   1.83397  -0.87508
H     3.79910  -0.86502  -0.13608
H     3.06102   0.71146  -0.07365
H    -0.71939  -1.72682   0.00153
