41
Generated by autodE on: 2022-06-19. E = -1027.811630 Ha. Imaginary frequency = -402.5 cm-1
C     4.79883  -1.59058  -0.18871
N     3.43788  -1.48044   0.29473
C     2.77420  -0.30293   0.28463
O     3.32011   0.75308  -0.07206
C     1.35147  -0.39574   0.69642
N     0.67212   0.71490   1.08165
C     0.57306   1.82328   0.29427
C    -0.51239   2.71507   0.59589
O    -1.43415   2.45313   1.37121
O    -0.46149   3.86877  -0.11328
C    -1.56753   4.75989   0.04371
C    -0.28196   0.36524  -1.50398
C     0.58713  -0.71290  -1.27686
C    -0.00652  -2.09715  -1.06054
C    -1.29193  -1.97162  -0.26839
C    -1.83351  -3.04578   0.57403
N    -1.12482  -4.20317   0.61637
O    -2.89200  -2.93100   1.22610
C    -2.02256  -0.82434  -0.38353
N    -1.61560   0.25833  -1.11035
C    -2.55460   1.32319  -1.43244
H     5.48913  -0.97547   0.41047
H     5.11598  -2.63839  -0.12177
H     4.88028  -1.26186  -1.23764
H     2.94592  -2.31698   0.58990
H     1.08621  -1.28742   1.26837
H    -0.17588   0.53731   1.62227
H     1.43257   2.14215  -0.28325
H    -1.68379   5.06267   1.09501
H    -2.50144   4.28912  -0.30067
H    -1.34296   5.63697  -0.57543
H    -0.05213   1.17520  -2.19159
H     1.52267  -0.66974  -1.83818
H    -0.19373  -2.58828  -2.03794
H     0.72949  -2.73512  -0.54681
H    -1.48177  -4.96797   1.17820
H    -0.28270  -4.35059   0.07559
H    -2.99675  -0.73165   0.09980
H    -3.28021   1.44621  -0.61823
H    -2.01129   2.26556  -1.56937
H    -3.10034   1.10271  -2.36548
