17
Generated by autodE on: 2022-10-20. E = -418.325975 Ha
C    -3.32650   0.22269  -0.66036
C    -1.91310  -0.20993  -0.34108
O    -1.66830  -1.41764  -0.14523
C    -0.92606   0.82671  -0.28167
N     0.38423   0.62747  -0.00601
C     1.25026   1.82820   0.01358
C     0.95659  -0.55615   0.25030
C     2.32863  -0.66066   0.52781
N     3.46515  -0.80553   0.76466
H    -3.67662  -0.32493  -1.55031
H    -3.42007   1.30221  -0.83883
H    -3.98579  -0.06394   0.17535
H    -1.21072   1.85913  -0.46361
H     1.68901   1.93758   1.01354
H     0.64991   2.70910  -0.22839
H     2.05068   1.70697  -0.72720
H     0.31802  -1.43744   0.23797
