20
Generated by autodE on: 2022-10-20. E = -461.427433 Ha
C     2.85736  -0.70799   0.16144
O     1.58901  -1.23691  -0.20911
C     0.53785  -0.39345  -0.23918
C     0.32406   0.91211   0.01468
C     1.12535   2.07081   0.50611
C    -1.21914   1.02967  -0.15007
C    -1.88271   0.27283   1.02316
C    -1.64379  -1.01888   0.77353
C    -0.84463  -1.01177  -0.54987
O    -1.46180   0.09596  -1.22485
H     3.57024  -1.54186   0.12051
H     3.17679   0.07940  -0.54038
H     2.83145  -0.29903   1.18437
H     0.77474   2.38418   1.50713
H     2.19884   1.85970   0.58032
H     0.99675   2.94672  -0.15395
H    -1.59906   2.03241  -0.38047
H    -2.37045   0.73806   1.87961
H    -1.87690  -1.90309   1.36597
H    -0.83652  -1.92891  -1.14992
