37
Generated by autodE on: 2022-10-20. E = -879.747993 Ha. Imaginary frequency = -260.5 cm-1
C     4.45475  -1.91666   0.33507
O     3.10091  -1.99896  -0.09663
C     2.44578  -0.84893  -0.35073
C     2.73340   0.46854  -0.31211
C     3.90159   1.31418   0.07136
C     1.36083   1.11866  -0.64066
O     0.81184   0.16595  -1.57721
C     0.94541  -0.96189  -0.69576
C     0.16423  -0.45949   0.53247
C     0.42495   0.88918   0.56408
C    -1.66697   1.76846  -0.29166
C    -1.82845   3.06017   0.24511
N    -1.88319   4.14329   0.68214
N    -2.41357   0.71016   0.12544
C    -3.13615   0.83017   1.39503
C    -2.07363  -0.48721  -0.40875
C    -2.46339  -1.84316  -0.05638
C    -3.23030  -2.20673   1.19102
O    -2.07216  -2.74561  -0.81322
H     4.79759  -2.94752   0.49296
H     4.53439  -1.35561   1.28015
H     5.08493  -1.43655  -0.43093
H     4.14342   2.03648  -0.72820
H     3.66299   1.91506   0.96849
H     4.80754   0.73618   0.28905
H     1.39928   2.13027  -1.06302
H     0.61749  -1.90165  -1.15459
H    -0.13752  -1.09636   1.36236
H     0.36708   1.55327   1.42503
H    -1.18846   1.68420  -1.26523
H    -2.50116   0.47055   2.21797
H    -4.06511   0.25595   1.35726
H    -3.38650   1.88182   1.56742
H    -1.57721  -0.41749  -1.37365
H    -4.26125  -1.82364   1.14887
H    -3.26156  -3.30152   1.26388
H    -2.75712  -1.79339   2.09317
