39
Generated by autodE on: 2022-05-29. E = -1084.615429 Ha
C     3.88816   3.18340   0.42552
N     2.81196   2.25826   0.72898
C     2.05334   1.72440  -0.23198
O     2.19439   1.94443  -1.43918
C     0.97798   0.75264   0.21399
N    -0.34555   1.04522  -0.32513
C    -1.01633  -0.03049   0.43629
C    -2.52365  -0.11985   0.29507
O    -3.14515  -1.10317   0.70885
N    -3.10656   0.93468  -0.28944
C    -4.54365   1.01541  -0.46384
C    -0.54626   0.40018   1.82978
O    -1.09535   0.37375   2.89671
O     0.72706   0.84022   1.64733
C    -0.19483  -1.35600   0.14785
C    -0.31140  -2.40735   1.24535
C    -0.47979  -1.92104  -1.29341
C     0.43742  -3.12287  -1.48223
C     1.66298  -2.60895  -1.64783
C     1.48617  -1.09963  -1.57799
O     0.16261  -0.94333  -2.13365
C     1.23710  -0.74774  -0.07724
H     4.56605   2.75359  -0.32669
H     3.49969   4.13595   0.03092
H     4.45305   3.38366   1.34349
H     2.58256   2.05444   1.69666
H    -0.34239   0.79195  -1.31810
H    -2.51933   1.72188  -0.54718
H    -4.92351   0.11470  -0.96850
H    -5.06285   1.10750   0.50407
H    -4.77876   1.89359  -1.07689
H    -0.04430  -2.00068   2.23104
H     0.36882  -3.24573   1.04514
H    -1.33839  -2.79216   1.30385
H    -1.53895  -2.03520  -1.54778
H     0.13849  -4.16699  -1.39676
H     2.61905  -3.12569  -1.73114
H     2.21047  -0.46860  -2.10068
H     2.01420  -1.14431   0.58558
