16
Generated by autodE on: 2022-05-29. E = -346.852370 Ha
C     2.55099   0.00966   0.13217
C     1.08922   0.27097   0.07932
C     0.28793   1.06030   0.80631
C    -1.14228   0.75076   0.31058
C    -1.48452  -0.69079   0.76019
C    -0.68984  -1.47615   0.02646
C     0.11721  -0.49863  -0.85819
O    -0.87783   0.51792  -1.09053
H     2.74097  -1.05016   0.38121
H     3.02506   0.18824  -0.84853
H     3.05180   0.63695   0.88415
H     0.54019   1.72300   1.63386
H    -1.90897   1.51899   0.46218
H    -2.18021  -0.95296   1.55707
H    -0.55648  -2.55724   0.05560
H     0.53829  -0.88953  -1.79189
