23
Generated by autodE on: 2022-05-29. E = -737.710170 Ha
C     4.92755   0.19674  -0.00207
N     3.52884  -0.13624   0.17852
C     2.52830   0.60033  -0.32676
O     2.64307   1.63097  -0.99625
C     1.16827   0.09418  -0.02876
N     0.05988   0.66456  -0.43831
C    -1.03763  -0.04334   0.00201
C    -2.39798   0.37933  -0.31734
O    -2.59798   1.40209  -0.99371
N    -3.37595  -0.41507   0.17303
C    -4.78581  -0.16593  -0.03387
C    -0.55192  -1.14188   0.74547
O    -1.04683  -2.07516   1.35172
O     0.88872  -0.99002   0.68540
H     5.44958  -0.59796  -0.55695
H     5.42337   0.32614   0.97189
H     4.99983   1.13283  -0.56729
H     3.29081  -0.96834   0.71210
H     0.02263   1.51525  -1.00413
H    -3.09588  -1.22629   0.71888
H    -5.30562   0.00818   0.92207
H    -4.90073   0.72471  -0.66254
H    -5.26867  -1.01820  -0.53777
