39
Generated by autodE on: 2022-05-29. E = -1084.558805 Ha. Imaginary frequency = -367.4 cm-1
C     4.45868   2.37509   0.70193
N     3.15810   1.79184   0.97273
C     2.21832   1.70311   0.02291
O     2.35696   2.08930  -1.14311
C     0.95201   1.02842   0.41919
N    -0.21733   1.29594  -0.21603
C    -1.19671   0.65149   0.49407
C    -2.55499   0.46148  -0.01928
O    -2.83458   0.72239  -1.20024
N    -3.44182  -0.04652   0.86045
C    -4.80355  -0.35519   0.47429
C    -0.69387   0.46017   1.82081
O    -1.19947   0.07891   2.86234
O     0.66480   0.80947   1.74389
C    -0.03313  -1.56815   0.02738
C    -0.51584  -2.43728   1.13460
C    -0.55248  -1.75426  -1.41760
C     0.26038  -2.93802  -1.98406
C     1.49898  -2.45661  -2.14337
C     1.42660  -0.98897  -1.67773
O     0.08595  -0.65245  -2.08830
C     1.23509  -1.00178  -0.14206
H     4.92333   1.89509  -0.17223
H     4.38062   3.45502   0.49762
H     5.10238   2.22546   1.57655
H     2.93286   1.48512   1.91431
H    -0.24975   1.32950  -1.23524
H    -3.12359  -0.23348   1.80886
H    -5.32916  -0.77780   1.33905
H    -5.33989   0.54742   0.14028
H    -4.83002  -1.08704  -0.34892
H    -0.34292  -3.49478   0.85857
H    -1.59689  -2.32256   1.30778
H     0.01716  -2.24343   2.07506
H    -1.63625  -1.75679  -1.57375
H    -0.11994  -3.94680  -2.14151
H     2.40422  -2.96662  -2.47207
H     2.15981  -0.28690  -2.08650
H     2.06331  -1.18634   0.54362
