65
Generated by autodE on: 2022-06-11. E = -1605.423147 Ha
C   -12.91515   0.32390  11.39111
O   -11.62058   0.75056  11.85645
C   -10.69425  -0.17897  12.00102
O   -10.83932  -1.36007  11.78546
C    -9.37448   0.38416  12.58517
C    -9.38534   1.86871  12.67753
N    -9.33685   3.00164  12.92188
C    -8.12000  -0.09921  11.83865
C    -7.24967  -0.59256  12.73654
C    -5.88671  -1.17081  12.44233
C    -4.85727  -0.73718  13.38959
N    -4.00245  -0.41549  14.10495
C    -5.88048  -2.71381  12.29043
C    -6.91615  -3.19706  11.27783
C    -6.90207  -2.45895   9.92568
C    -8.01130  -1.42242   9.69385
C    -7.93376   0.01172  10.31785
C    -6.60372   0.71912   9.97307
C    -5.99743   1.63269  10.85099
C    -4.83121   2.31293  10.49150
C    -4.24724   2.09827   9.24069
C    -4.84808   1.20211   8.35249
C    -6.01470   0.52367   8.71456
C    -9.06872   0.87684   9.69178
C   -10.17662   0.30539   9.04294
C   -11.19493   1.10244   8.51237
C   -11.13552   2.49239   8.62049
C   -10.03313   3.07721   9.24820
C    -9.01077   2.27907   9.76346
C    -7.82318  -0.50662  14.15350
C    -7.13193   0.56921  14.91393
N    -6.69560   1.46983  15.50016
C    -7.65904  -1.85767  14.91771
C    -8.67511  -2.91098  14.61918
O    -6.72963  -1.99256  15.68465
N    -9.21283  -0.18921  13.91537
C   -10.01841   0.32114  15.01116
H   -13.49073   1.24132  11.22970
H   -12.81397  -0.23726  10.45375
H   -13.39228  -0.30471  12.15610
H    -5.55933  -0.75570  11.47986
H    -6.03872  -3.19798  13.26461
H    -4.86784  -2.99066  11.95772
H    -7.92446  -3.13881  11.71546
H    -6.72209  -4.26786  11.11111
H    -5.90665  -2.02815   9.73014
H    -7.04719  -3.20817   9.13228
H    -8.11170  -1.28208   8.60951
H    -8.95603  -1.87046  10.02918
H    -6.43176   1.81845  11.83439
H    -4.37967   3.01411  11.19720
H    -3.33314   2.62625   8.95948
H    -4.40759   1.02641   7.36815
H    -6.46868  -0.16112   7.99811
H   -10.27695  -0.77354   8.95667
H   -12.04409   0.62497   8.01837
H   -11.93558   3.11455   8.21278
H    -9.96168   4.16369   9.33704
H    -8.15836   2.76365  10.23573
H    -9.56175  -2.71524  15.24654
H    -9.01022  -2.86691  13.57525
H    -8.27053  -3.89852  14.87527
H    -9.91086  -0.34624  15.87790
H   -11.07664   0.32481  14.71454
H    -9.73629   1.34497  15.31855
