65
Generated by autodE on: 2022-06-11. E = -1605.306590 Ha. Imaginary frequency = -308.9 cm-1
C   -10.27779   3.69061  10.62867
O    -9.45426   2.88893  11.48915
C   -10.05363   1.93112  12.19738
O   -11.22866   1.65259  12.09862
C    -9.05248   1.29080  13.11253
C    -7.95679   2.15779  13.42565
N    -7.10248   2.91203  13.65803
C    -7.54962  -0.20992  11.99138
C    -7.04977  -0.75315  13.00423
C    -5.89467  -1.62136  13.39636
C    -5.80102  -1.97025  14.81657
N    -5.66629  -2.29647  15.92139
C    -5.82928  -2.92356  12.53622
C    -5.07744  -2.75246  11.21289
C    -5.48976  -1.55684  10.34844
C    -6.98791  -1.50756  10.00257
C    -7.71757  -0.20491  10.50004
C    -7.03324   0.98668   9.81855
C    -6.33594   1.96077  10.53950
C    -5.68172   3.01376   9.89015
C    -5.70097   3.10225   8.49782
C    -6.36745   2.11642   7.76122
C    -7.01876   1.06940   8.41419
C    -9.21546  -0.34455  10.15109
C    -9.93043  -1.42578  10.69453
C   -11.28330  -1.61417  10.41288
C   -11.95775  -0.71935   9.57516
C   -11.25939   0.35695   9.02800
C    -9.90212   0.54283   9.31437
C    -8.44865  -0.29391  14.76912
C    -7.53516   0.47335  15.56277
N    -6.79715   1.00876  16.28517
C    -8.77935  -1.64389  15.40567
C    -9.12883  -2.79548  14.50407
O    -8.65692  -1.77819  16.60750
N    -9.41404   0.32723  14.02167
C   -10.76947  -0.25831  13.97943
H    -9.58622   4.33443  10.07431
H   -10.96665   4.29762  11.23378
H   -10.85118   3.05997   9.93829
H    -4.98049  -1.03202  13.19941
H    -5.32424  -3.70303  13.12544
H    -6.85952  -3.27160  12.37500
H    -3.99923  -2.66857  11.42969
H    -5.20693  -3.68633  10.63985
H    -5.19031  -0.62765  10.85802
H    -4.89487  -1.57739   9.42243
H    -7.14604  -1.56890   8.91709
H    -7.50875  -2.37263  10.43343
H    -6.28460   1.89831  11.62296
H    -5.15197   3.76289  10.48358
H    -5.19252   3.92362   7.98750
H    -6.37815   2.15998   6.66947
H    -7.52279   0.30753   7.81774
H    -9.42494  -2.12778  11.35885
H   -11.81354  -2.46019  10.85643
H   -13.01834  -0.86080   9.35484
H   -11.77115   1.07163   8.37903
H    -9.39121   1.40449   8.89003
H    -8.22327  -3.42112  14.42975
H    -9.41871  -2.50033  13.49137
H    -9.91417  -3.40365  14.97451
H   -10.88916  -0.93748  14.82624
H   -11.49800   0.54896  14.09093
H   -10.94992  -0.77717  13.03217
