37
Generated by autodE on: 2022-06-18. E = -825.718296 Ha
C     2.18601   2.84581  -0.44896
O     1.70418   1.71536   0.28728
C     2.14101   0.51978  -0.11410
O     2.94968   0.34602  -1.01217
N     1.65130  -0.51215   0.66491
O     0.47848  -0.26099   1.39286
C    -0.65230  -0.83694   0.64578
C    -1.53146  -1.49310   1.70625
C    -1.43187   0.28314  -0.04088
C    -1.47600   1.56561   0.52676
C    -2.23169   2.58231  -0.06211
C    -2.96963   2.32987  -1.22294
C    -2.94593   1.05127  -1.78650
C    -2.18314   0.03665  -1.19964
C     0.02369  -1.82460  -0.36136
C    -0.63980  -3.18571  -0.52385
C     1.50265  -1.85600   0.09637
C     1.87370  -2.92607   1.11253
H     1.70446   3.72182   0.00088
H     1.90591   2.76484  -1.50916
H     3.27913   2.92850  -0.36270
H    -2.43908  -1.90851   1.24691
H    -0.99270  -2.29774   2.22557
H    -1.83976  -0.73737   2.44416
H    -0.90038   1.77108   1.42950
H    -2.24357   3.57746   0.38938
H    -3.56027   3.12478  -1.68454
H    -3.52126   0.83920  -2.69099
H    -2.18107  -0.95527  -1.65468
H     0.02949  -1.32775  -1.34163
H    -0.67741  -3.75171   0.41679
H    -1.67073  -3.07820  -0.89263
H    -0.08427  -3.78903  -1.25864
H     2.16773  -1.92281  -0.77211
H     1.74951  -3.92797   0.67771
H     1.25007  -2.86135   2.01619
H     2.92725  -2.81174   1.40863
