25
Generated by autodE on: 2022-07-27. E = -668.343597 Ha
C     3.95401   0.12629   2.45815
O     2.67401  -0.05742   1.85351
C     2.48712   0.56226   0.65843
O     3.37123   1.23786   0.12692
N     1.27924   0.41458   0.06376
O     0.48193  -0.40688   0.87586
C    -0.73587  -0.71834   0.62140
C    -1.29333  -1.61316   1.67941
C    -1.52493  -0.29149  -0.52118
C    -1.03845   0.53232  -1.56758
C    -1.87147   0.88862  -2.62568
C    -3.19477   0.44214  -2.67052
C    -3.69202  -0.37162  -1.64469
C    -2.87205  -0.73572  -0.58470
H     3.92870  -0.43633   3.40005
H     4.14613   1.19002   2.66563
H     4.75751  -0.26284   1.81445
H    -1.63034  -2.56498   1.24098
H    -0.52284  -1.81015   2.43382
H    -2.16453  -1.14362   2.16161
H    -0.01062   0.87674  -1.52857
H    -1.48074   1.52265  -3.42425
H    -3.84113   0.72631  -3.50410
H    -4.72512  -0.72315  -1.67418
H    -3.28164  -1.36901   0.20086
