25
Generated by autodE on: 2022-06-18. E = -668.351587 Ha
C     3.86349   1.41718   0.31826
O     2.65020   0.66978   0.23673
C     2.77804  -0.68377   0.31060
O     3.87779  -1.22693   0.44315
N     1.64524  -1.41907   0.23155
O     0.55397  -0.54112   0.08388
C    -0.62731  -1.02495  -0.01938
C    -0.81406  -2.48766   0.01748
C    -1.67949  -0.03013  -0.16768
C    -1.34747   1.34524  -0.20309
C    -2.34462   2.30207  -0.34330
C    -3.68640   1.91011  -0.44987
C    -4.02569   0.55443  -0.41589
C    -3.03261  -0.41326  -0.27621
H     3.57559   2.47345   0.24287
H     4.54563   1.15828  -0.50581
H     4.37632   1.23927   1.27575
H    -1.86018  -2.78775  -0.07977
H    -0.21106  -2.93992  -0.78756
H    -0.39061  -2.87478   0.95921
H    -0.30319   1.64679  -0.12005
H    -2.07999   3.36103  -0.37031
H    -4.46778   2.66547  -0.55988
H    -5.07016   0.24775  -0.49865
H    -3.31463  -1.46514  -0.25098
