37
Generated by autodE on: 2022-06-18. E = -825.633393 Ha. Imaginary frequency = -326.5 cm-1
C     3.75127   0.88846   2.38150
O     2.42532   0.71448   1.87930
C     2.27152   0.87937   0.54076
O     3.22168   1.14807  -0.19702
N     1.02113   0.71772   0.03842
O     0.14218   0.40821   1.07814
C    -0.99406  -0.16623   0.73103
C    -1.76847  -0.59958   1.94049
C    -1.77184   0.28185  -0.45705
C    -1.50665   1.50833  -1.09245
C    -2.31522   1.95060  -2.14134
C    -3.39380   1.17804  -2.57985
C    -3.67269  -0.03784  -1.94677
C    -2.87634  -0.47695  -0.89032
C    -0.10106  -2.05490   0.00868
C     0.37168  -2.77774   1.24218
C     0.78947  -1.55690  -0.92473
C     2.26034  -1.80136  -0.91607
H     3.68950   0.72466   3.46472
H     4.12120   1.90484   2.17866
H     4.44206   0.15893   1.93287
H    -2.43709  -1.43679   1.70429
H    -1.08964  -0.88680   2.75255
H    -2.39548   0.24210   2.28041
H    -0.66505   2.11335  -0.76389
H    -2.09620   2.90789  -2.62012
H    -4.01701   1.52221  -3.40848
H    -4.51786  -0.64727  -2.27442
H    -3.11533  -1.42396  -0.40341
H    -1.10665  -2.28123  -0.34928
H     1.04520  -2.14211   1.83987
H    -0.46879  -3.08293   1.87970
H     0.93451  -3.68981   0.97825
H     0.37068  -1.15012  -1.84966
H     2.46104  -2.74360  -1.46146
H     2.66515  -1.91975   0.09872
H     2.81466  -1.00331  -1.42742
