44
Generated by autodE on: 2022-05-30. E = -996.630794 Ha
C     3.29678  -0.32930   0.74813
C     2.60291  -0.02129  -0.54228
O     3.10775  -0.22914  -1.62926
C     1.15668   0.56451  -0.50084
C     1.08359   1.49770  -1.66213
N     1.05724   2.32486  -2.47631
N     0.82382   1.23323   0.73115
C     1.50314   2.49414   0.98422
C    -0.64011   1.19212   0.96792
C    -0.91844   1.32267   2.46860
C    -1.37716   2.33434   0.23756
C    -1.04586  -0.21936   0.37886
C    -2.48128  -0.17229  -0.15462
C    -3.61338  -0.34203   0.83397
O    -2.73741   0.06405  -1.32199
C    -0.90287  -1.40852   1.41610
C    -1.42925  -2.65894   0.71775
C    -0.47553  -2.99174  -0.15956
C     0.61372  -1.94548   0.02405
O     0.50430  -1.64557   1.41707
C     0.09968  -0.61073  -0.65089
C    -0.22074  -0.87265  -2.12006
H     3.73218   0.60381   1.14227
H     2.60145  -0.70831   1.50499
H     4.11277  -1.03835   0.55618
H     1.22538   3.30179   0.28112
H     1.28422   2.83635   2.00441
H     2.59060   2.35687   0.91063
H    -0.71698   2.35015   2.80433
H    -1.97438   1.10996   2.68614
H    -0.28981   0.64233   3.05778
H    -2.44450   2.33958   0.49704
H    -1.29349   2.25946  -0.85366
H    -0.96717   3.30398   0.55160
H    -3.37146  -0.95589   1.70850
H    -3.87851   0.66375   1.20239
H    -4.49065  -0.74656   0.31101
H    -1.27247  -1.20702   2.42330
H    -2.40938  -3.10911   0.87062
H    -0.47281  -3.78345  -0.90757
H     1.62681  -2.25359  -0.25221
H     0.70367  -1.19274  -2.62724
H    -0.60627   0.01375  -2.63168
H    -0.96547  -1.66966  -2.22645
