21
Generated by autodE on: 2022-05-30. E = -499.581910 Ha
C     2.60048  -1.11407   0.49812
C     1.85800   0.17690   0.25922
O     2.41521   1.26729   0.40270
C     0.45554   0.05663  -0.14276
C    -0.51130   1.00522  -0.18457
C    -0.51044   2.45348   0.11562
C    -1.80256   0.22442  -0.52865
C    -2.15321  -0.61863   0.71694
C    -1.20845  -1.56299   0.76252
C    -0.29427  -1.26900  -0.44769
O    -1.26467  -0.78769  -1.39630
H     2.05033  -1.74889   1.21222
H     3.60844  -0.90543   0.87961
H     2.67308  -1.68370  -0.44328
H    -0.83704   3.02456  -0.77120
H     0.47722   2.80897   0.42918
H    -1.25263   2.66572   0.90593
H    -2.60819   0.79895  -0.99909
H    -2.96767  -0.40700   1.40865
H    -1.03899  -2.34525   1.50174
H     0.29550  -2.09885  -0.84902
