23
Generated by autodE on: 2022-05-30. E = -497.015428 Ha
C     2.72405   0.98787  -0.37459
C     1.25114   0.71626  -0.60077
O     0.65013   1.33912  -1.50291
C     0.60846  -0.24381   0.23464
C     1.27617  -1.03053   1.18833
N     1.81546  -1.69683   1.98849
N    -0.76795  -0.56191  -0.01003
C    -1.05140  -1.94340  -0.43085
C    -1.69413   0.36394  -0.03006
C    -1.44664   1.71675   0.52464
C    -3.04827   0.06825  -0.58152
H     2.84303   2.04231  -0.07622
H     3.25922   0.85862  -1.32839
H     3.18549   0.34896   0.38921
H    -0.92065  -2.03007  -1.51956
H    -0.33480  -2.60666   0.06693
H    -2.06682  -2.24005  -0.14829
H    -2.36822   2.08515   0.99838
H    -1.19237   2.40250  -0.30046
H    -0.61077   1.72082   1.23650
H    -3.00419  -0.55585  -1.48444
H    -3.64526  -0.47107   0.17531
H    -3.56939   1.00654  -0.80990
