23
Generated by autodE on: 2022-07-26. E = -497.014646 Ha
C     2.19155  -0.98183  -1.90660
C     1.42369  -0.93640  -0.60203
O     1.66283  -1.78978   0.28095
C     0.45575   0.09065  -0.42212
C     0.12957   1.05985  -1.38260
N    -0.16748   1.87677  -2.17047
N    -0.23102   0.16986   0.84005
C     0.60160   0.35065   2.04381
C    -1.53674   0.16373   0.93058
C    -2.19452   0.42257   2.24184
C    -2.38125  -0.09887  -0.26228
H     2.10705  -1.99329  -2.33383
H     1.85445  -0.24636  -2.64862
H     3.25914  -0.80800  -1.69348
H     0.47766   1.37560   2.42231
H     0.30756  -0.36350   2.82280
H     1.64595   0.18459   1.77346
H    -2.07556  -0.46108   2.89371
H    -3.26653   0.60400   2.10172
H    -1.74053   1.27607   2.76605
H    -3.33890  -0.53463   0.05246
H    -1.87078  -0.75463  -0.98129
H    -2.60234   0.85189  -0.78020
