39
Generated by autodE on: 2022-06-01. E = -3931.314620 Ha
C    -4.02877   1.58081  -0.53216
O    -2.86549   1.01877  -1.16005
C    -2.08028   0.26609  -0.39982
O    -2.33330  -0.02350   0.75030
C    -0.82277  -0.26745  -1.13784
C    -0.98257  -0.13321  -2.65198
N    -0.61373  -1.66629  -0.75649
C    -1.67594  -2.62889  -1.00783
C     0.11340  -1.80020   0.48540
C    -0.74259  -2.02241   1.69299
N    -1.40195  -2.38195   2.57637
C     0.93377  -3.04234   0.42862
N     1.52823  -4.03554   0.37901
C     1.02350  -0.49615   0.57050
Cl    0.95398   0.16047   2.23970
C     2.47821  -0.76740   0.11673
C     3.31471   0.52435   0.21243
C     2.81731   1.36108  -0.99556
C     1.67077   0.50494  -1.56959
C     2.28539  -0.90085  -1.40827
C     0.46610   0.44608  -0.58592
Br   -0.02603   2.28296  -0.02159
H    -4.68202   0.78280  -0.15224
H    -3.72993   2.23742   0.29783
H    -4.54151   2.15817  -1.30952
H    -1.94439  -0.54724  -2.97870
H    -0.17693  -0.66776  -3.16875
H    -0.96110   0.92502  -2.94262
H    -2.56176  -2.47079  -0.36613
H    -1.29621  -3.64551  -0.83046
H    -1.98378  -2.57044  -2.05918
H     2.92235  -1.61842   0.64409
H     3.17896   1.03444   1.17409
H     4.37904   0.26832   0.11940
H     3.59540   1.44637  -1.76722
H     2.50918   2.37638  -0.72370
H     1.37398   0.80101  -2.57951
H     3.24688  -0.98831  -1.93303
H     1.63407  -1.72142  -1.72553
