22
Generated by autodE on: 2022-07-27. E = -625.194100 Ha
C    -2.48093   2.62277  -0.25616
O    -1.77315   1.54817  -0.90171
C    -0.55833   1.27664  -0.44296
O    -0.00511   1.88387   0.45040
C     0.09864   0.17755  -1.22464
C     0.05611   0.23885  -2.71448
N     0.77030  -0.76228  -0.59436
C     1.63611  -1.66056  -1.38463
C     0.63901  -1.05127   0.77551
C    -0.53280  -0.71381   1.47072
N    -1.51698  -0.44629   2.04502
C     1.66579  -1.71647   1.46750
N     2.49487  -2.27335   2.07817
H    -2.60592   2.39749   0.81219
H    -1.93030   3.56636  -0.37612
H    -3.45484   2.68093  -0.75408
H    -0.64834   1.01222  -3.03839
H     1.05039   0.48117  -3.12654
H    -0.25140  -0.72842  -3.14346
H     2.26028  -2.24778  -0.70583
H     1.00367  -2.33899  -1.97330
H     2.27056  -1.06888  -2.05288
