22
Generated by autodE on: 2022-06-01. E = -625.194069 Ha
C     3.57065   0.07781   0.62743
O     2.40162  -0.71361   0.34580
C     1.42243  -0.11154  -0.31702
O     1.46190   1.03393  -0.71639
C     0.28444  -1.04672  -0.59873
C     0.59224  -2.40496  -1.13284
N    -0.95638  -0.62934  -0.46161
C    -2.04319  -1.46401  -1.01230
C    -1.33840   0.50795   0.27092
C    -0.52348   1.00861   1.29828
N     0.14926   1.41440   2.16583
C    -2.56142   1.14863   0.00804
N    -3.57331   1.70754  -0.17638
H     3.29183   0.95212   1.23207
H     4.24763  -0.57721   1.18646
H     4.04071   0.40796  -0.30959
H     0.28773  -2.49043  -2.18965
H     0.05267  -3.18435  -0.57084
H     1.66779  -2.59992  -1.06715
H    -1.81734  -1.72300  -2.05228
H    -2.98401  -0.90964  -0.96429
H    -2.13127  -2.37885  -0.41087
