39
Generated by autodE on: 2022-06-01. E = -3931.244797 Ha. Imaginary frequency = -293.2 cm-1
C    -3.77632   1.83025  -0.22606
O    -2.87546   0.99330  -0.96352
C    -2.13489   0.14332  -0.25153
O    -2.24460   0.01159   0.94926
C    -1.20744  -0.64280  -1.12739
C    -1.31546  -0.40210  -2.60175
N    -0.84342  -1.88912  -0.70169
C    -0.71602  -2.95494  -1.72101
C    -0.31340  -2.16659   0.56574
C    -0.96913  -2.00351   1.82091
N    -1.35869  -2.04318   2.91971
C     0.64141  -3.22113   0.63382
N     1.47049  -4.03628   0.72998
C     1.14717  -0.12095   0.63646
Cl    0.90904   0.39416   2.27134
C     2.47533  -0.73526   0.23604
C     3.46346   0.47195   0.13195
C     2.96266   1.23059  -1.12931
C     1.72152   0.39831  -1.57279
C     2.23090  -1.02023  -1.25644
C     0.65740   0.58078  -0.48455
Br   -0.04536   2.36462  -0.29252
H    -4.52524   1.21936   0.29793
H    -3.22222   2.43562   0.50545
H    -4.26109   2.47629  -0.96655
H    -2.24883  -0.82126  -3.01458
H    -0.46690  -0.83494  -3.14337
H    -1.33609   0.67908  -2.78213
H    -1.59031  -2.91947  -2.37991
H    -0.70799  -3.92570  -1.21700
H     0.19323  -2.85308  -2.32820
H     2.81954  -1.56172   0.86700
H     3.44930   1.08690   1.04217
H     4.48522   0.08840  -0.00200
H     3.71219   1.21104  -1.93356
H     2.70956   2.27997  -0.93016
H     1.37698   0.59522  -2.59425
H     3.16357  -1.25166  -1.78979
H     1.51216  -1.81450  -1.45499
