23
Generated by autodE on: 2022-06-18. E = -351.521384 Ha
C    -3.43910  -0.24401  -1.55281
C    -2.09833  -0.08205  -1.50923
C    -1.29868   0.17174  -2.76157
C    -1.39612  -0.15091  -0.22922
C    -0.05935  -0.00186  -0.05120
C     0.58683  -0.07872   1.24313
C     1.91142   0.05899   1.50417
C     2.43367  -0.04793   2.90900
C     2.95918   0.32210   0.46013
H    -4.01668  -0.42803  -0.64162
H    -3.98983  -0.19696  -2.49641
H    -0.53666  -0.61105  -2.91189
H    -1.94635   0.19809  -3.64920
H    -0.75661   1.13005  -2.69964
H    -2.02249  -0.33980   0.65095
H     0.57208   0.18704  -0.92362
H    -0.07875  -0.26923   2.09376
H     1.63210  -0.23851   3.63765
H     3.17888  -0.85985   2.98879
H     2.96002   0.87816   3.20245
H     2.55794   0.40061  -0.55842
H     3.50053   1.25695   0.68957
H     3.71800  -0.48028   0.47009
