11
Generated by autodE on: 2022-06-18. E = -393.762419 Ha
C    -3.12586  -0.36071   0.06816
C    -1.96021   0.56796   0.15583
O    -2.00639   1.77015   0.32632
C    -0.64236  -0.06520   0.01874
N     0.42909  -0.50951  -0.08718
N     1.51782  -1.14311  -0.22127
C     2.65188  -0.45359  -0.16664
N     3.71797   0.02750  -0.13929
H    -3.04877  -1.12501   0.85918
H    -3.10670  -0.88798  -0.89986
H    -4.05711   0.21034   0.17616
