34
Generated by autodE on: 2022-06-18. E = -745.285971 Ha. Imaginary frequency = -222.5 cm-1
C    -2.62427   2.72933   1.11834
C    -1.51790   2.02651   1.45389
C    -1.31388   1.47906   2.84098
C    -0.49838   1.81212   0.44065
C     0.66609   1.09561   0.59960
C     1.68593   1.02758  -0.43723
C     2.87217   0.37884  -0.35456
C     3.32995  -0.40178   0.84393
C     3.82590   0.37812  -1.51463
C    -0.41924  -0.86111   0.11444
C    -0.11936  -1.79778   1.20946
C    -0.48607  -3.22232   0.87811
O     0.37372  -1.45656   2.26721
N    -0.92121  -0.86247  -0.98490
N    -1.23833  -0.09960  -1.96658
C    -1.78781  -0.66072  -3.03478
N    -2.27855  -1.01165  -4.03933
H    -3.41471   2.92927   1.84674
H    -2.76057   3.11712   0.10469
H    -1.21440   0.38326   2.82420
H    -0.38435   1.87072   3.28594
H    -2.15334   1.74534   3.49787
H    -0.69132   2.26571  -0.53681
H     0.90669   0.70313   1.58933
H     1.44353   1.53927  -1.37496
H     3.39474  -1.47474   0.58920
H     4.34835  -0.09271   1.13525
H     2.67247  -0.30392   1.71556
H     4.79664   0.81658  -1.22260
H     3.43385   0.93753  -2.37637
H     4.04210  -0.65617  -1.83687
H    -1.56052  -3.28852   0.64693
H    -0.23918  -3.85962   1.73659
H     0.06707  -3.55123  -0.01549
