51
Generated by autodE on: 2022-06-06. E = -1936.538692 Ha
C    -6.75092   5.26478  -1.12565
N    -6.45584   3.85963  -0.91791
C    -7.41176   2.93289  -0.81054
O    -8.62252   3.20756  -0.81291
C    -6.94605   1.46936  -0.63521
C    -7.48288   0.56594  -1.72777
C    -8.22650  -0.43151  -1.20552
C    -8.29072  -0.29359   0.33609
C    -7.72455  -1.49734   1.09309
C    -9.73969   0.00209   0.85878
O   -10.26054  -0.66088   1.75993
N   -10.33524   1.07273   0.30382
C   -11.62767   1.53262   0.76692
N    -7.51822   0.93039   0.56455
C    -6.83361   1.16705   1.81134
C    -8.89479  -1.56275  -1.98416
Cl  -10.34865  -2.20171  -1.05762
C    -7.95319  -2.79113  -2.15042
F    -8.50511  -3.71423  -2.95300
F    -6.79341  -2.41563  -2.70694
F    -7.65610  -3.40844  -1.00184
C    -9.41889  -1.19252  -3.38289
C   -10.15931   0.15133  -3.50238
C    -9.43267   1.13050  -4.42941
C    -8.21116   1.84420  -3.84454
C    -7.15341   0.99196  -3.15093
F    -6.78360  -0.06450  -3.94226
F    -6.00575   1.76347  -3.06862
H    -7.03129   5.46884  -2.17262
H    -5.86422   5.86053  -0.87548
H    -7.58503   5.57162  -0.48013
H    -5.49398   3.54363  -0.99652
H    -5.83836   1.44110  -0.63673
H    -7.69424  -1.27853   2.16800
H    -8.35459  -2.38104   0.95792
H    -6.70699  -1.72129   0.74629
H    -9.75264   1.72562  -0.23075
H   -11.59134   1.89998   1.80761
H   -12.36671   0.71787   0.72495
H   -11.96871   2.35045   0.11882
H    -7.49481   0.94578   2.66241
H    -5.90129   0.57851   1.93295
H    -6.56592   2.23284   1.88237
H    -8.56705  -1.21041  -4.07135
H   -10.06805  -2.01763  -3.69728
H   -11.16002  -0.03848  -3.91612
H   -10.32025   0.60609  -2.51278
H    -9.14125   0.59508  -5.34803
H   -10.13119   1.92100  -4.74506
H    -8.53933   2.59785  -3.11697
H    -7.67800   2.37488  -4.64860
