28
Generated by autodE on: 2022-06-06. E = -628.880851 Ha
C     4.27091   1.20770   1.16291
N     2.87921   1.13289   0.78187
C     2.33706  -0.01323   0.27553
O     3.07055  -1.01604   0.11890
C     0.91708   0.12844  -0.01084
N     0.07245  -0.78535  -0.53456
C     0.64487  -2.05911  -1.03403
C    -1.27750  -0.64870  -0.66408
C    -2.04926  -1.70140  -1.41281
C    -1.99209   0.46075  -0.02646
O    -1.44994   1.47433   0.46977
N    -3.35325   0.35392   0.02301
C    -4.14854   1.36081   0.69164
H     4.93594   0.97339   0.31547
H     4.51407   0.50386   1.97727
H     4.49047   2.22628   1.50702
H     2.28406   1.93911   0.93253
H     0.44749   1.06721   0.25766
H     0.07666  -2.90116  -0.62425
H     1.68798  -2.11473  -0.72118
H     0.58182  -2.07705  -2.12937
H    -1.50963  -2.06260  -2.29837
H    -2.99457  -1.28584  -1.78426
H    -2.29523  -2.58672  -0.79722
H    -3.79831  -0.52639  -0.20182
H    -5.21088   1.12311   0.55188
H    -3.95386   2.35944   0.27157
H    -3.93953   1.41056   1.77482
