28
Generated by autodE on: 2022-07-27. E = -628.883141 Ha
C     0.44790   3.18875  -2.28467
N     1.14445   2.38633  -1.30404
C     0.69218   1.13975  -0.95421
O    -0.43780   0.75268  -1.33049
C     1.62471   0.35326  -0.19168
N     1.36593  -0.90092   0.27587
C     2.54091  -1.78961   0.39127
C     0.16540  -1.41347   0.57891
C     0.01542  -2.90016   0.73247
C    -0.94780  -0.49988   0.95125
O    -0.76128   0.57047   1.55179
N    -2.20122  -0.95254   0.71187
C    -3.35675  -0.13254   1.01268
H     0.54613   2.79419  -3.31321
H     0.85079   4.21025  -2.26870
H    -0.62478   3.23240  -2.04770
H     2.11970   2.60066  -1.12458
H     2.66374   0.66985  -0.13154
H     2.54583  -2.29064   1.36642
H     2.50974  -2.54639  -0.40431
H     3.44909  -1.19062   0.27515
H     0.57858  -3.28835   1.59949
H    -1.03418  -3.16949   0.89534
H     0.37241  -3.44813  -0.15515
H    -2.32377  -1.75188   0.10049
H    -3.34625   0.80788   0.43560
H    -3.38762   0.12895   2.08120
H    -4.26656  -0.69198   0.76159
