51
Generated by autodE on: 2022-06-06. E = -1936.428358 Ha. Imaginary frequency = -102.3 cm-1
C    -8.03045   5.02586  -1.43750
N    -7.31206   4.03474  -0.66570
C    -7.84682   2.80932  -0.39023
O    -9.05528   2.57831  -0.59137
C    -6.86121   1.84404   0.08555
C    -7.25870   0.52823  -2.02678
C    -8.06788  -0.36144  -1.76001
C    -8.26279   0.17430   1.12479
C    -8.37105  -1.21031   1.69517
C    -9.37201   1.11872   1.50023
O    -9.13431   2.11526   2.19421
N   -10.62174   0.72462   1.19357
C   -11.75947   1.58014   1.46236
N    -7.08105   0.69292   0.77892
C    -5.88782  -0.16585   0.90841
C    -8.92822  -1.41645  -2.27917
Cl  -10.56582  -1.47452  -1.40590
C    -8.29885  -2.80820  -2.05569
F    -9.05135  -3.78127  -2.58310
F    -7.09253  -2.86416  -2.64144
F    -8.12492  -3.08821  -0.75792
C    -9.19678  -1.18534  -3.77883
C    -9.64138   0.24352  -4.15147
C    -8.57955   1.14281  -4.82070
C    -7.69808   2.04204  -3.94447
C    -6.64799   1.34601  -3.09095
F    -5.87500   0.51938  -3.88405
F    -5.76943   2.28461  -2.60685
H    -7.94266   4.85419  -2.52513
H    -7.63479   6.02610  -1.21281
H    -9.09482   4.99965  -1.17201
H    -6.30082   4.11253  -0.64559
H    -5.81738   2.13965   0.03691
H    -8.22169  -1.19296   2.79127
H    -9.37870  -1.60704   1.51673
H    -7.65499  -1.91357   1.26081
H   -10.71439   0.00887   0.47864
H   -11.71639   2.50814   0.86686
H   -11.79128   1.85894   2.52542
H   -12.68128   1.04014   1.21165
H    -5.83094  -0.58121   1.92095
H    -5.94533  -0.98070   0.17387
H    -4.99566   0.43429   0.70778
H    -8.25560  -1.42838  -4.29663
H    -9.94221  -1.92514  -4.10226
H   -10.46833   0.13950  -4.86876
H   -10.07138   0.75163  -3.27294
H    -7.93578   0.52749  -5.47040
H    -9.11181   1.83141  -5.49500
H    -8.31955   2.64835  -3.26977
H    -7.13972   2.73558  -4.59379
