49
Generated by autodE on: 2022-06-24. E = -1092.197481 Ha
C     2.72175   2.28449   1.30937
N     1.61166   1.95046   0.43399
C     0.90331   2.97792  -0.16160
C    -0.34400   2.84947  -0.65782
C    -1.06964   1.54032  -0.55068
C    -0.62043   0.78549   0.71933
C    -1.11765   1.46945   1.99683
N    -2.39897   1.87730   2.00971
O    -0.37926   1.62974   2.97559
C     0.92147   0.70852   0.72961
C     1.15470  -0.53687  -0.12723
C     2.43593  -0.90975  -0.76577
C     2.77024  -2.27157  -0.89922
C     3.96254  -2.65447  -1.51122
C     4.84069  -1.68371  -2.00796
C     4.51617  -0.32991  -1.88695
C     3.32532   0.05791  -1.26736
N     0.14677  -1.32946  -0.13799
C    -0.97332  -0.76134   0.64125
C    -0.94234  -1.43330   2.02594
C    -2.30242  -1.03078  -0.05870
C    -3.52247  -0.91320   0.62756
C    -4.73912  -1.11276  -0.03110
C    -4.76047  -1.44293  -1.38932
C    -3.55270  -1.57376  -2.08016
C    -2.33792  -1.36934  -1.41967
H     3.43500   1.44825   1.35510
H     3.25412   3.16162   0.91444
H     2.38696   2.51186   2.33961
H     1.44745   3.92459  -0.22064
H    -0.81522   3.69914  -1.15426
H    -2.15848   1.68543  -0.55807
H    -0.86292   0.89976  -1.42492
H    -3.02416   1.72274   1.22863
H    -2.76982   2.30128   2.85447
H     1.23423   0.40949   1.74204
H     2.08458  -3.02433  -0.50862
H     4.21146  -3.71470  -1.59918
H     5.77539  -1.98371  -2.48775
H     5.19334   0.43256  -2.27902
H     3.07059   1.11298  -1.18472
H     0.02560  -1.27282   2.52026
H    -1.72778  -1.04454   2.68715
H    -1.09613  -2.51564   1.90901
H    -3.53289  -0.65997   1.68750
H    -5.67506  -1.01306   0.52405
H    -5.71132  -1.60091  -1.90394
H    -3.55323  -1.83627  -3.14103
H    -1.39935  -1.47795  -1.96313
