29
Generated by autodE on: 2022-06-24. E = -634.411622 Ha
C    -1.42473   2.61187  -1.02785
C    -1.16536   1.17723  -0.65102
N    -0.12119   0.58199  -1.10270
C     0.78782  -0.10143  -1.57828
C     2.09532  -0.28053  -0.92679
C     2.31958   0.11092   0.40972
C     3.56155  -0.10076   1.00479
C     4.59803  -0.69452   0.27170
C     4.38722  -1.08370  -1.05490
C     3.13870  -0.88629  -1.64826
C    -2.09559   0.42976   0.21393
C    -1.83419  -0.90765   0.58295
C    -2.72351  -1.61014   1.39351
C    -3.89220  -0.99674   1.86251
C    -4.15983   0.32870   1.50808
C    -3.27421   1.03707   0.69291
H    -0.61930   2.99056  -1.67063
H    -2.38064   2.71101  -1.56865
H    -1.48809   3.25213  -0.13297
H     1.50839   0.57631   0.97523
H     3.72815   0.19864   2.04229
H     5.57193  -0.85678   0.73980
H     5.19518  -1.54867  -1.62425
H     2.95559  -1.19694  -2.67929
H    -0.92212  -1.39537   0.23314
H    -2.50167  -2.64482   1.66628
H    -4.58601  -1.54812   2.50121
H    -5.06784   0.81896   1.86767
H    -3.50573   2.06885   0.42610
