53
Generated by autodE on: 2022-12-30. E = -1483.756310 Ha
C    -1.91892  -2.50078   2.86109
N    -1.48974  -1.96588   1.58345
C    -1.47156  -0.64849   1.35383
O    -1.95297   0.18012   2.13140
C    -0.88304  -0.19336  -0.01722
C    -1.87402  -0.78644  -1.05990
O    -1.57233  -1.77959  -1.72186
N    -3.10788  -0.26196  -1.05960
C    -4.09124  -0.71469  -2.02324
C    -0.64469   1.34508   0.05665
C    -1.79550   2.19746   0.67828
C    -1.43780   3.14630   1.78116
O    -2.90065   2.21294   0.15647
C    -0.45396   1.94752  -1.37632
C     0.50689   3.08838  -1.52435
O    -1.12877   1.54145  -2.30114
N     0.54534   1.43398   0.90408
C     1.34842   0.23542   0.86113
C     1.36387  -0.44521   2.17558
N     1.35084  -0.94661   3.22089
C     2.80235   0.57162   0.45046
O     3.11978   1.64826   0.00230
O     3.62575  -0.42967   0.68301
C     5.00439  -0.25594   0.30401
C     0.61353  -0.67485  -0.22521
O     0.69204  -2.03613  -0.05627
C     1.94730  -2.72140  -0.15478
O     1.19558  -0.20929  -1.40889
C     0.97359  -0.83892  -2.67397
H    -2.88674  -2.06869   3.15043
H    -1.18537  -2.27227   3.65299
H    -2.02317  -3.58938   2.77519
H    -0.92336  -2.54522   0.96740
H    -3.21866   0.67424  -0.65631
H    -3.80404  -0.44605  -3.05483
H    -5.05656  -0.24597  -1.79315
H    -4.20608  -1.80699  -1.97611
H    -1.00214   2.61178   2.63274
H    -2.33734   3.69738   2.08331
H    -0.67689   3.85609   1.41669
H     1.53825   2.72851  -1.39473
H     0.32706   3.84716  -0.74543
H     0.38972   3.53374  -2.51993
H     1.10610   2.27055   0.76659
H     5.44438   0.58037   0.86426
H     5.50350  -1.19682   0.55904
H     5.07296  -0.06169  -0.77511
H     2.59636  -2.26977  -0.91545
H     2.46225  -2.72343   0.81574
H     1.70458  -3.75178  -0.44456
H     1.87163  -0.62505  -3.26938
H     0.84597  -1.92216  -2.57024
H     0.09129  -0.41376  -3.16978
