28
Generated by autodE on: 2022-12-30. E = -724.035869 Ha
C     3.03492  -1.83631  -1.39721
N     2.17368  -0.93139  -0.66464
C     0.84030  -1.12246  -0.61527
O     0.34787  -2.14518  -1.14523
C    -0.02354  -0.11822   0.06802
C    -1.33206  -0.54877   0.64480
O    -1.81405   0.01291   1.64656
N    -1.95982  -1.58404   0.05032
C    -3.12457  -2.19688   0.65156
C     0.36334   1.19937   0.24767
O     1.64802   1.54495   0.18878
C     2.01432   2.91383  -0.06751
O    -0.42263   2.23826   0.47680
C    -1.76419   2.33055  -0.02508
H     2.75841  -1.89010  -2.46311
H     4.06885  -1.47751  -1.32002
H     2.98592  -2.85837  -0.98905
H     2.55757  -0.08480  -0.26109
H    -1.39900  -2.08367  -0.64485
H    -2.91084  -2.60195   1.65613
H    -3.94545  -1.47075   0.75599
H    -3.46671  -3.01837   0.00921
H     3.09459   2.89398  -0.25203
H     1.79207   3.54080   0.80609
H     1.48422   3.29568  -0.95089
H    -1.90711   3.38155  -0.30757
H    -2.47614   2.03880   0.75459
H    -1.88769   1.68286  -0.90453
