25
Generated by autodE on: 2022-12-30. E = -759.705255 Ha
C     4.55137   0.00019  -0.50243
O     3.24916  -0.56109  -0.26493
C     2.22077   0.27671  -0.28960
O     2.29641   1.47535  -0.49590
C     0.92898  -0.40531  -0.03763
C     0.91918  -1.77904   0.30093
N     1.04335  -2.89070   0.62822
N    -0.11539   0.42109  -0.03287
C    -1.44354   0.37118   0.12140
C    -2.01453   1.74756   0.13583
C    -3.49105   1.98597   0.22164
O    -1.22903   2.69382   0.05057
C    -2.15276  -0.92455   0.09048
C    -3.53768  -1.06980   0.65703
O    -1.57979  -1.88735  -0.41498
H     4.58836   0.46512  -1.49777
H     4.78738   0.74970   0.26617
H     5.25293  -0.83930  -0.44599
H     0.18337   1.41669  -0.14750
H    -4.02757   1.43296  -0.56292
H    -3.88142   1.64871   1.19337
H    -3.67670   3.06148   0.11149
H    -3.72764  -2.13951   0.81522
H    -4.28486  -0.69029  -0.05712
H    -3.65666  -0.51887   1.59969
