25
Generated by autodE on: 2023-01-01. E = -759.700157 Ha
C     2.39047  -0.44588  -3.35253
O     1.53581  -0.30284  -2.20559
C     2.03485  -0.66151  -1.01985
O     3.14504  -1.12340  -0.84517
C     1.06563  -0.42869   0.07311
C     1.52920  -0.67548   1.38657
N     2.04213  -0.83789   2.42010
N    -0.10297   0.13887  -0.25380
C    -1.24122   0.45924   0.38231
C    -1.55286  -0.15465   1.69182
C    -2.68214   0.36796   2.53066
O    -0.89463  -1.12758   2.05535
C    -2.18561   1.30585  -0.38219
C    -1.80205   1.72619  -1.78427
O    -3.24822   1.66898   0.10972
H     1.79983  -0.10463  -4.20963
H     3.28996   0.17441  -3.23379
H     2.67830  -1.49887  -3.47878
H    -0.08949   0.40285  -1.24898
H    -3.64604   0.15027   2.04681
H    -2.63896  -0.12741   3.50971
H    -2.62323   1.45976   2.64334
H    -2.63668   2.29272  -2.21414
H    -0.90307   2.36350  -1.77633
H    -1.59819   0.85593  -2.43022
