53
Generated by autodE on: 2022-12-30. E = -1483.706385 Ha. Imaginary frequency = -356.7 cm-1
C    -2.97444  -2.91245   1.94772
N    -1.83038  -2.39800   1.22388
C    -1.95210  -1.29798   0.46095
O    -3.08242  -0.85110   0.18797
C    -0.71270  -0.68093  -0.16175
C    -0.84866  -0.16739  -1.58050
O     0.12669   0.32805  -2.16955
N    -2.05992  -0.23237  -2.16180
C    -2.29635   0.30889  -3.48325
C    -0.64150   1.37439   0.70169
C    -0.91069   1.16193   2.20323
C    -0.56974   2.35473   3.05560
O    -1.44599   0.17234   2.64496
C    -1.76504   2.16384   0.06481
C    -1.47144   3.03706  -1.11921
O    -2.87298   2.08703   0.56963
N     0.62170   1.64353   0.30261
C     1.66037   0.78056   0.64801
C     1.90519   0.53632   2.03124
N     2.08387   0.29516   3.15564
C     2.87216   0.77795  -0.20199
O     3.87263   0.13608   0.05932
O     2.72004   1.52090  -1.29589
C     3.76990   1.47300  -2.27445
C     0.62272  -1.17396   0.16365
O     0.74614  -1.82909   1.33783
C     1.93710  -2.59440   1.59548
O     1.50228  -1.56750  -0.78960
C     1.07990  -2.65409  -1.63546
H    -3.80207  -3.14529   1.26267
H    -2.67873  -3.83035   2.47115
H    -3.34263  -2.18256   2.68974
H    -0.90186  -2.62005   1.56763
H    -2.84010  -0.46900  -1.54553
H    -1.49700   0.00366  -4.17308
H    -3.25424  -0.07482  -3.85777
H    -2.34019   1.41123  -3.48065
H    -1.37991   3.09239   2.92014
H    -0.53134   2.05349   4.11025
H     0.36683   2.83821   2.74910
H    -2.41769   3.41289  -1.52700
H    -0.85709   3.88990  -0.78339
H    -0.90560   2.51310  -1.90237
H     0.73108   2.01166  -0.64349
H     3.44350   2.12111  -3.09519
H     4.71095   1.84313  -1.84422
H     3.90370   0.44180  -2.63044
H     2.83652  -2.00644   1.37792
H     1.89640  -2.84013   2.66250
H     1.93866  -3.51546   0.99574
H     0.61418  -3.45376  -1.04065
H     1.98943  -3.03345  -2.11771
H     0.37675  -2.30121  -2.40315
