36
Generated by autodE on: 2022-06-02. E = -1119.505577 Ha
C     2.93512   2.64271   0.80268
O     2.30840   1.64098  -0.02030
C     1.23304   1.05692   0.47442
O     0.72292   1.32336   1.54120
C     0.69273  -0.04303  -0.43615
C     1.42249  -1.37398  -0.13694
O     1.16159  -2.39748  -0.72425
O     2.38362  -1.22803   0.75906
C     3.14074  -2.40397   1.10331
N     0.95744   0.20896  -1.87712
N    -0.08801   0.00736  -2.53063
N    -1.14770  -0.36369  -1.79817
C    -2.46211  -0.20911  -2.40439
C    -0.86013  -0.21290  -0.36259
C    -1.28434  -1.38078   0.56497
C    -2.53074  -2.14086   0.25221
O    -0.58867  -1.61163   1.53360
C    -1.53393   1.09781   0.12412
O    -1.40094   2.14163  -0.47119
O    -2.28254   0.91557   1.19723
C    -2.92369   2.07951   1.75308
H     3.27821   2.19277   1.74496
H     3.78637   3.01540   0.22265
H     2.22684   3.45555   1.01458
H     2.47126  -3.16281   1.53164
H     3.87778  -2.07721   1.84457
H     3.64065  -2.80559   0.21126
H    -2.31444  -0.17467  -3.49033
H    -2.95063   0.72534  -2.08496
H    -3.10953  -1.05998  -2.16465
H    -2.75130  -2.83517   1.07253
H    -3.37469  -1.45397   0.09240
H    -2.37813  -2.70704  -0.68125
H    -3.49451   1.72194   2.61662
H    -2.16041   2.80495   2.06714
H    -3.59106   2.53484   1.00872
