29
Generated by autodE on: 2022-06-02. E = -915.289125 Ha
C     3.37741  -1.77685   1.45700
O     1.99667  -1.53284   1.13434
C     1.74478  -1.07091  -0.08410
O     2.56838  -0.92936  -0.96147
C     0.27477  -0.82921  -0.30056
C    -0.51380  -1.91949  -0.98994
C     0.23837  -3.13108  -1.44331
O    -1.71571  -1.78596  -1.14440
C    -0.31627   0.32555   0.06293
C     0.46610   1.41311   0.73048
O     1.66358   1.37066   0.92502
O    -0.31472   2.43484   1.06485
C     0.31581   3.55628   1.70730
C    -1.78771   0.59173  -0.13111
O    -2.60434   0.42530   0.74709
O    -2.04102   1.10473  -1.32872
C    -3.41940   1.38536  -1.62832
H     3.38164  -2.17262   2.47852
H     3.94293  -0.83531   1.40815
H     3.81039  -2.50748   0.75960
H     1.02003  -2.83721  -2.16138
H    -0.44964  -3.85127  -1.90202
H     0.75042  -3.59024  -0.58146
H     0.78445   3.23706   2.64879
H     1.07621   3.99211   1.04404
H    -0.48464   4.27824   1.90160
H    -4.00503   0.45513  -1.60137
H    -3.42699   1.81151  -2.63765
H    -3.83094   2.10373  -0.90545
