32
Generated by autodE on: 2022-06-21. E = -893.552498 Ha
C    -2.83237   3.89730   1.42072
N    -2.62626   2.51733   1.03334
C    -1.40589   2.03975   0.75533
O    -0.37148   2.73860   0.82434
C    -1.28028   0.61888   0.34924
N     0.01958   0.29871   0.15033
C     0.75373  -0.79473  -0.03984
C     0.21973  -2.09832   0.15525
N    -0.09991  -3.19884   0.36499
C     2.18361  -0.66441  -0.35470
C     2.70887   0.53957  -0.86977
C     4.07228   0.65791  -1.13459
C     4.93377  -0.42178  -0.91297
C     4.41857  -1.62653  -0.42339
C     3.05840  -1.75040  -0.14653
C    -2.41549  -0.22119   0.01643
O    -3.57621   0.01898   0.34350
O    -2.08424  -1.26753  -0.74704
C    -3.11177  -2.21395  -1.06113
H    -2.24182   4.15279   2.31481
H    -2.54143   4.59168   0.61573
H    -3.89536   4.04602   1.64575
H    -3.40815   1.86963   0.94702
H     0.56063   1.18254   0.24226
H     2.05404   1.38408  -1.09538
H     4.46093   1.59695  -1.53452
H     5.99986  -0.32746  -1.13059
H     5.08154  -2.47711  -0.25065
H     2.67167  -2.69223   0.24625
H    -3.55840  -2.61689  -0.14079
H    -3.89439  -1.74327  -1.67338
H    -2.61978  -3.01542  -1.62378
