50
Generated by autodE on: 2022-06-21. E = -1129.501439 Ha. Imaginary frequency = -357.2 cm-1
C    -4.10917   2.63181  -0.27297
N    -3.36452   1.44204   0.07599
C    -2.03567   1.49017   0.29621
O    -1.40768   2.56024   0.25658
C    -1.33665   0.20801   0.57570
C    -2.08581  -0.90913   1.16985
O    -3.29758  -1.07473   1.09067
O    -1.29078  -1.80615   1.77956
C    -1.92020  -2.96634   2.33878
N    -0.00241   0.25044   0.94092
C     1.04065   0.60110   0.12357
C     1.03463   1.84692  -0.59097
N     1.21705   2.79670  -1.23902
C     2.39913   0.13236   0.50943
C     3.54503   0.67865  -0.10150
C     4.81876   0.19372   0.19763
C     4.98232  -0.84209   1.12046
C     3.85426  -1.38961   1.73986
C     2.57931  -0.91381   1.43770
C     0.42659  -0.69315  -1.65400
C     1.27031  -0.08612  -2.75109
C     0.94926  -2.02002  -1.16129
C    -0.98787  -0.50545  -1.68428
C    -1.89544  -1.71051  -1.61872
C    -1.55532   0.61852  -2.51330
H    -3.71071   3.09491  -1.19038
H    -5.15721   2.35622  -0.44503
H    -4.07138   3.38953   0.52734
H    -3.82991   0.54648   0.20356
H    -2.64228  -2.67604   3.11508
H    -2.43438  -3.53728   1.55276
H    -1.11231  -3.56404   2.77580
H     0.23424  -0.52992   1.54736
H     3.44186   1.49385  -0.81731
H     5.68872   0.63577  -0.29312
H     5.97946  -1.21916   1.35793
H     3.96395  -2.19938   2.46457
H     1.73247  -1.38861   1.93551
H     2.33642  -0.07676  -2.47785
H     1.17279  -0.71522  -3.65558
H     0.97459   0.93118  -3.02883
H     0.52960  -2.29932  -0.18457
H     0.67848  -2.81966  -1.87397
H     2.04433  -2.01364  -1.08108
H    -1.57099  -2.47432  -0.90290
H    -2.93036  -1.42866  -1.38366
H    -1.90663  -2.18488  -2.61906
H    -1.03845   1.57326  -2.35621
H    -1.46554   0.36384  -3.58561
H    -2.62265   0.76263  -2.30257
