14
Generated by autodE on: 2022-05-31. E = -324.833617 Ha
C     2.99170  -0.50444   1.01501
C     1.68531  -0.30982   0.40964
C     0.60177  -0.14620  -0.08231
C    -0.67020   0.01835  -0.77059
O    -0.75139  -0.15322  -1.99552
N    -1.73951   0.34197  -0.01267
C    -1.75893   0.65942   1.40147
H     3.38245   0.44888   1.40656
H     3.71410  -0.89882   0.28293
H     2.92855  -1.21388   1.85600
H    -2.59718   0.48507  -0.54203
H    -2.05974   1.70612   1.56657
H    -0.75993   0.51379   1.82947
H    -2.46489   0.00748   1.93916
