28
Generated by autodE on: 2022-07-27. E = -890.323321 Ha
C     3.89165  -1.52162  -1.15160
N     2.65032  -0.92529  -0.70048
C     2.65309   0.15247   0.10000
O     3.66967   0.71959   0.51832
C     1.30548   0.66311   0.48626
C     1.21970   1.79906   1.33170
N     1.27499   2.73417   2.02493
O     0.31369   0.00207  -0.00121
C    -0.95139  -0.21959  -0.16014
C    -1.17797  -1.39685  -1.04773
O    -0.20728  -2.01318  -1.51541
N    -2.45369  -1.72569  -1.29445
C    -2.79090  -2.85000  -2.14320
C    -1.98141   0.60807   0.47490
O    -3.18243   0.42366   0.33991
O    -1.44540   1.57343   1.20888
C    -2.32832   2.47294   1.89412
H     4.47932  -0.81431  -1.75883
H     4.51587  -1.83363  -0.29936
H     3.65846  -2.40252  -1.76143
H     1.75709  -1.32420  -1.00065
H    -3.18195  -1.15705  -0.86403
H    -2.38820  -2.71626  -3.15990
H    -3.88245  -2.93369  -2.20174
H    -2.38176  -3.78984  -1.73961
H    -2.95365   1.91907   2.60861
H    -2.96723   3.00032   1.17168
H    -1.67791   3.18045   2.42039
