42
Generated by autodE on: 2022-05-31. E = -1215.165841 Ha. Imaginary frequency = -294.2 cm-1
C    -2.83395   0.00346  -3.34186
N    -1.56372   0.29263  -2.70374
C    -1.49206   1.11625  -1.64024
O    -2.45735   1.76222  -1.21666
C    -0.17881   1.21506  -1.00456
C     0.92540   1.69687  -0.72927
C     2.11829   2.54129  -0.74908
C     1.57591   0.23472   1.16762
C     1.41679   1.25832   2.14463
N     1.40938   2.13179   2.91471
C     2.96940  -0.13409   0.76497
O     3.92284   0.55684   1.14122
N     3.06056  -1.20500  -0.03847
C     4.33408  -1.63381  -0.58038
O     0.68017  -0.66314   0.85777
C    -0.56851  -0.74917   0.48519
C    -0.74171  -1.86677  -0.49768
O     0.25982  -2.37700  -1.02145
N    -1.99759  -2.22205  -0.79596
C    -2.27720  -3.14823  -1.87424
C    -1.66109  -0.08925   1.22233
O    -2.84317  -0.25212   0.96145
O    -1.20438   0.71072   2.17177
C    -2.15034   1.54994   2.85197
H    -2.66762  -0.72099  -4.14741
H    -3.27638   0.91532  -3.77091
H    -3.55339  -0.41875  -2.62210
H    -0.75452  -0.27834  -2.92889
H     1.96806   3.34964  -1.48290
H     2.30822   3.00005   0.23275
H     3.01302   1.97188  -1.04074
H     2.19854  -1.65178  -0.36044
H     4.67632  -0.97122  -1.39345
H     5.10394  -1.63435   0.20438
H     4.22828  -2.65095  -0.97742
H    -2.75094  -1.68782  -0.36266
H    -1.79757  -2.81937  -2.80986
H    -3.36173  -3.19830  -2.02508
H    -1.90241  -4.15672  -1.63866
H    -1.55769   2.16959   3.53387
H    -2.87031   0.93728   3.41216
H    -2.67913   2.17632   2.11955
