60
Generated by autodE on: 2022-06-28. E = -1530.112085 Ha
C    -3.80252  -2.68398  -2.57679
N    -2.99543  -2.00699  -1.58219
C    -1.74892  -2.41048  -1.29463
O    -1.24309  -3.42942  -1.76532
C    -1.03465  -1.53936  -0.21619
C    -1.21364  -2.39161   1.06523
O    -0.72461  -3.52029   1.14007
N    -2.02926  -1.86715   1.99093
C    -2.23932  -2.51826   3.26812
O    -1.70195  -0.29284  -0.07606
C    -1.05723   0.79049  -0.79288
C    -2.07352   1.37331  -1.77175
C    -0.64051   1.86654   0.21555
C    -0.17000   3.10937  -0.24201
C     0.32068   4.06122   0.65351
C     0.33151   3.79868   2.02704
C    -0.17324   2.58321   2.49331
C    -0.65913   1.62895   1.59486
C     0.19444   0.08229  -1.50082
C    -0.11138  -0.34465  -2.94282
C     1.39882   1.02073  -1.57731
O     1.64098   1.65496  -2.58915
C     2.28449   1.20138  -0.38944
O     3.10565   2.23300  -0.56207
C     3.98691   2.71565   0.45848
C     2.16701   0.37615   0.69198
O     2.86552   0.58667   1.83989
C     3.84323  -0.40412   2.17709
C     1.14522  -0.68510   0.74657
O     0.94275  -1.24897   1.81311
C     0.43609  -1.13065  -0.54717
C     1.34660  -2.22793  -1.12218
H    -3.37973  -2.56324  -3.58827
H    -3.86253  -3.76090  -2.36022
H    -4.81411  -2.26038  -2.56369
H    -3.30438  -1.12417  -1.18869
H    -2.34655  -0.91404   1.84966
H    -1.31706  -2.52072   3.87312
H    -2.55461  -3.56193   3.12327
H    -3.02289  -1.98300   3.81815
H    -2.90274   1.81509  -1.20067
H    -1.62076   2.16013  -2.38871
H    -2.47762   0.60227  -2.43670
H    -0.15066   3.33179  -1.30899
H     0.70153   5.01169   0.27299
H     0.72331   4.54003   2.72709
H    -0.18203   2.36565   3.56381
H    -1.02335   0.67893   1.97480
H    -0.30800   0.53687  -3.56171
H    -0.97703  -1.00883  -3.01756
H     0.75644  -0.86013  -3.37396
H     4.49630   3.57787   0.01006
H     4.72664   1.95335   0.73842
H     3.41852   3.03686   1.34105
H     4.25647  -0.11457   3.15190
H     3.39288  -1.40459   2.25304
H     4.64950  -0.41717   1.42543
H     0.95323  -2.62766  -2.06009
H     1.42641  -3.05272  -0.40230
H     2.35182  -1.81738  -1.29831
