34
Generated by autodE on: 2022-06-28. E = -840.584954 Ha
C    -2.37216  -3.52833   0.04811
N    -1.61139  -2.30285  -0.06117
C    -2.22064  -1.08733  -0.07369
O    -3.47571  -1.00947  -0.03385
C    -1.37223   0.08232  -0.16826
O    -0.02322  -0.21322  -0.05768
C     0.95349   0.42919  -0.61635
C     0.69303   1.42103  -1.67565
C     2.27408   0.01168  -0.18225
C     2.41647  -0.99954   0.79797
C     3.68100  -1.40976   1.20355
C     4.82500  -0.81179   0.65752
C     4.69677   0.20017  -0.29983
C     3.43419   0.61130  -0.71996
C    -1.77901   1.44383   0.12718
O    -0.95491   2.32497   0.46203
N    -3.11248   1.71121   0.03130
C    -3.65581   2.93651   0.57638
H    -2.94632  -3.57549   0.98863
H    -1.67859  -4.37822   0.02219
H    -3.08806  -3.63676  -0.78313
H    -0.60040  -2.34870  -0.09894
H     0.53233   2.42285  -1.24666
H    -0.24921   1.14705  -2.18139
H     1.52041   1.45862  -2.39345
H     1.52644  -1.45331   1.23463
H     3.78061  -2.19484   1.95603
H     5.81695  -1.13156   0.98462
H     5.58658   0.67215  -0.72128
H     3.34860   1.40332  -1.46389
H    -3.70249   0.87832  -0.03349
H    -3.58035   2.98834   1.67832
H    -3.12742   3.81006   0.16756
H    -4.71592   3.01294   0.30019
