26
Generated by autodE on: 2022-06-28. E = -689.460904 Ha
C     2.97263  -1.35065  -0.93692
O     1.58642  -1.67120  -0.78033
C     0.67884  -0.77542  -0.39415
C     0.84704   0.53669  -0.06701
O     2.05474   1.17280  -0.11963
C     2.66446   1.44385   1.14673
C    -0.31708   1.36987   0.30245
O    -0.15192   2.56341   0.54904
C    -1.67875   0.75778   0.36514
C    -2.81810   1.63777   0.77181
C    -1.85765  -0.54850   0.04729
C    -3.20513  -1.20087   0.08311
C    -0.69788  -1.38509  -0.35436
O    -0.82851  -2.56561  -0.64744
H     3.44488  -2.27760  -1.28616
H     3.11148  -0.55780  -1.68343
H     3.41999  -1.04918   0.02074
H     3.61282   1.95567   0.93574
H     2.86823   0.50504   1.68837
H     2.02897   2.09389   1.76670
H    -2.47502   2.65490   0.99372
H    -3.57700   1.68547  -0.02689
H    -3.32578   1.23027   1.66168
H    -3.90305  -0.69099  -0.60136
H    -3.14208  -2.25776  -0.20127
H    -3.64545  -1.13053   1.09133
