60
Generated by autodE on: 2022-06-28. E = -1530.048741 Ha. Imaginary frequency = -200.7 cm-1
C    -3.68669  -3.45506  -1.85635
N    -2.46544  -2.90424  -1.30096
C    -2.43053  -1.64752  -0.82537
O    -3.38782  -0.87140  -0.91848
C    -1.17378  -1.22864  -0.08019
C    -0.87305  -2.13666   1.08184
O    -0.91136  -3.36827   0.93100
N    -0.56922  -1.57258   2.25970
C    -0.16263  -2.38182   3.39179
O    -1.10714   0.08995   0.26819
C    -1.12152   1.18373  -0.47265
C    -1.91492   1.36989  -1.71719
C    -0.61806   2.35841   0.23828
C    -0.50030   3.60067  -0.42403
C     0.02163   4.71148   0.23730
C     0.42103   4.61714   1.57236
C     0.29433   3.39680   2.24743
C    -0.20921   2.28137   1.58927
C     0.62771  -0.14636  -2.05580
C     0.05885  -0.22380  -3.44265
C     1.32886   1.05900  -1.69892
O     1.37258   2.06871  -2.42512
C     2.10848   1.08856  -0.40626
O     2.62137   2.29501  -0.18901
C     3.39839   2.63317   0.96494
C     2.27208  -0.04532   0.33947
O     3.14542  -0.09190   1.39486
C     2.59214  -0.31899   2.69152
C     1.65896  -1.30458  -0.08581
O     1.96276  -2.35749   0.47930
C     0.69073  -1.31225  -1.25147
C     0.59436  -2.66357  -1.91589
H    -3.46588  -4.43792  -2.29120
H    -4.47231  -3.57249  -1.09023
H    -4.07799  -2.79713  -2.64533
H    -1.75069  -3.53701  -0.94995
H    -0.47234  -0.56668   2.31197
H     0.13293  -1.71809   4.21267
H     0.68629  -3.03142   3.12845
H    -0.98835  -3.02445   3.73548
H    -2.87274   1.85051  -1.45131
H    -1.38171   2.04864  -2.39351
H    -2.13491   0.44587  -2.24243
H    -0.80075   3.70401  -1.46431
H     0.11519   5.65883  -0.29763
H     0.82662   5.49033   2.08801
H     0.59672   3.31326   3.29318
H    -0.29829   1.34509   2.13307
H    -0.10928   0.77602  -3.85871
H    -0.88258  -0.78999  -3.47341
H     0.76679  -0.74489  -4.11231
H     3.54954   3.71798   0.89933
H     4.36783   2.11856   0.94552
H     2.86222   2.39434   1.89105
H     1.71163   0.31952   2.86425
H     2.31990  -1.37434   2.82650
H     3.37435  -0.05343   3.41611
H    -0.23267  -2.71573  -2.62947
H     0.48654  -3.46166  -1.17305
H     1.53072  -2.84774  -2.47015
