58
Generated by autodE on: 2022-06-30. E = -1880.169048 Ha
C     8.61713  10.15911   0.38207
N     7.36064   9.48206   0.64214
C     7.23789   8.64225   1.67477
O     8.08138   8.42964   2.52685
N     5.96868   7.92968   1.66527
N     5.62050   7.43469   0.46126
C     4.60464   6.61269   0.67285
C     3.97284   5.95738  -0.49400
C     4.75588   5.19673  -1.37902
C     4.17373   4.58535  -2.48954
C     2.80281   4.73018  -2.73247
C     2.02140   5.50164  -1.86795
C     2.60434   6.11810  -0.75855
C     4.28852   6.53316   2.06903
C     5.15755   7.44803   2.68418
C     5.16869   8.04331   4.09848
C     5.21022   9.60858   4.01642
F     4.97995  10.15549   5.21938
F     6.35463  10.14253   3.57511
F     4.25193  10.04385   3.18044
C     6.39795   7.48778   4.93552
F     7.08434   6.56471   4.25976
F     7.25121   8.45924   5.29667
F     6.00835   6.89719   6.07878
C     3.88358   7.73091   4.93606
C     2.50509   8.25161   4.51150
C     1.96149   7.88208   3.13341
C     1.86590   6.38901   2.83337
C     3.21326   5.63606   2.66178
C     3.72303   4.88314   3.93097
C     2.69786   4.29576   4.86201
O     4.91342   4.69250   4.09302
C     2.96362   4.36084   1.75864
C     4.13591   3.48525   1.40143
O     1.82890   4.02805   1.48677
H     8.46258  10.89184  -0.41875
H     9.40455   9.45244   0.07200
H     8.96141  10.68509   1.28408
H     6.62816   9.48800  -0.06055
H     5.82158   5.07278  -1.17794
H     4.78982   3.98800  -3.16560
H     2.34619   4.24562  -3.59869
H     0.95364   5.62966  -2.05953
H     1.99623   6.73172  -0.09248
H     3.85141   6.65614   5.09765
H     4.07709   8.13897   5.93433
H     1.81440   7.85124   5.27288
H     2.46897   9.34441   4.62661
H     2.53742   8.38553   2.34293
H     0.94100   8.29281   3.06409
H     1.31361   6.26345   1.89345
H     1.25379   5.89334   3.59818
H     3.19727   3.60202   5.54970
H     2.21025   5.09397   5.44317
H     1.90545   3.77649   4.30259
H     4.16377   2.66895   2.14348
H     3.96103   3.03668   0.41569
H     5.10013   4.00319   1.43042
