36
Generated by autodE on: 2022-06-30. E = -1291.969192 Ha
C     2.78527  -0.83134   2.00034
C     2.02951   0.32913   2.56941
O     1.97664   0.57239   3.75675
C     1.30731   1.27979   1.55453
C     2.32905   2.40136   1.23280
C     2.52131   3.47377   2.26092
O     2.93788   2.37377   0.18081
C     0.91120   0.55355   0.35541
C     0.21176  -0.07322  -0.40602
C    -0.99126  -0.72627  -0.91220
C    -0.70141  -2.22800  -1.15264
F    -1.80974  -2.90609  -1.47558
F     0.19368  -2.42014  -2.13103
F    -0.19813  -2.78493  -0.03953
C    -1.44548  -0.05256  -2.22888
F    -0.48565  -0.07808  -3.16343
F    -2.52912  -0.65034  -2.74388
F    -1.75909   1.23371  -2.01835
C    -2.09739  -0.58608   0.19283
C    -2.11149   0.72566   1.00357
C    -1.17772   0.83036   2.24311
C    -0.00842   1.83525   2.18128
H     3.40765  -1.29359   2.77684
H     3.39977  -0.50247   1.14760
H     2.06700  -1.57018   1.60902
H     1.63620   4.13077   2.26459
H     3.41044   4.06767   2.01391
H     2.60617   3.04412   3.26933
H    -3.07053  -0.73365  -0.29702
H    -1.96540  -1.42703   0.88814
H    -1.95150   1.58586   0.33792
H    -3.14666   0.82409   1.36371
H    -0.79813  -0.16782   2.51865
H    -1.80038   1.14865   3.09293
H     0.23902   2.16944   3.19732
H    -0.31524   2.72441   1.60956
