22
Generated by autodE on: 2022-06-30. E = -588.077636 Ha
C     5.23020   0.48936   0.12470
N     4.10522  -0.27837  -0.35689
C     2.81458   0.03703  -0.09083
O     2.46378   1.01373   0.58619
N     1.93104  -0.87551  -0.67546
N     0.71028  -0.60587  -0.44163
C    -0.42294  -0.40733  -0.26051
C    -1.80607  -0.16921  -0.04178
C    -2.77320  -0.99184  -0.65646
C    -4.12522  -0.74329  -0.42989
C    -4.52222   0.31295   0.39805
C    -3.56090   1.12840   1.00614
C    -2.20400   0.89590   0.79372
H     5.84318   0.87199  -0.70777
H     4.85429   1.34359   0.70041
H     5.88109  -0.11327   0.77958
H     4.27477  -1.10400  -0.92068
H    -2.45492  -1.81242  -1.30125
H    -4.87548  -1.37918  -0.90458
H    -5.58420   0.50122   0.56999
H    -3.87044   1.95256   1.65227
H    -1.44613   1.52483   1.26342
