58
Generated by autodE on: 2022-06-30. E = -1880.026740 Ha. Imaginary frequency = -330.3 cm-1
C     9.25267   7.61893   0.88466
N     7.82155   7.83681   0.81643
C     7.26334   8.95887   1.32234
O     7.91792   9.87905   1.80810
N     5.84236   9.04071   1.29601
N     5.26266   8.30515   0.43545
C     4.50003   7.39221   0.26920
C     3.62206   6.71041  -0.63996
C     4.14732   5.82601  -1.60147
C     3.27793   5.11539  -2.42586
C     1.89376   5.27456  -2.29472
C     1.37393   6.16161  -1.34559
C     2.23015   6.88159  -0.51568
C     4.46626   6.74103   2.51024
C     4.89391   7.74777   3.09117
C     4.76060   8.61838   4.27837
C     4.40512  10.08307   3.89883
F     3.83190  10.72102   4.93660
F     5.47336  10.80918   3.54740
F     3.52968  10.12476   2.88607
C     6.06677   8.62043   5.11270
F     7.15084   8.84942   4.36096
F     6.03312   9.56532   6.07038
F     6.25749   7.44559   5.72432
C     3.61664   8.00368   5.14989
C     2.18788   7.99777   4.57841
C     1.86408   7.39808   3.19640
C     2.16085   5.91604   2.92926
C     3.65649   5.51190   2.65317
C     4.15735   4.66165   3.87175
C     3.50359   3.31730   4.06602
O     5.04001   5.04826   4.60591
C     3.79679   4.53267   1.45111
C     5.20390   4.20406   1.03137
O     2.82786   3.98805   0.96198
H     9.79695   8.46799   0.44504
H     9.50130   6.71107   0.32099
H     9.59903   7.49514   1.92471
H     7.22629   7.06425   0.53480
H     5.22721   5.69790  -1.68333
H     3.68258   4.42755  -3.17123
H     1.21732   4.70536  -2.93610
H     0.29396   6.28980  -1.24772
H     1.83552   7.56415   0.23718
H     3.93304   6.98009   5.37370
H     3.59263   8.54677   6.10643
H     1.58626   7.45963   5.33047
H     1.80024   9.02886   4.57789
H     2.30055   8.01580   2.40107
H     0.77251   7.50467   3.08040
H     1.58886   5.59832   2.04729
H     1.77591   5.31890   3.76973
H     4.13958   2.56837   3.56373
H     3.48291   3.07652   5.13740
H     2.49943   3.24729   3.63274
H     5.65511   3.57658   1.81980
H     5.19651   3.63818   0.09258
H     5.83315   5.10105   0.94538
