43
Generated by autodE on: 2022-06-20. E = -1111.730253 Ha
C     4.50741   1.90650   0.72542
O     3.62654   0.83400   1.10086
C     2.35504   0.93989   0.72800
O     1.89195   1.90352   0.15021
C     1.55905  -0.30601   1.08873
O     0.19918   0.02097   1.28719
C    -0.52510  -0.08052   0.06458
C    -0.86826   1.32548  -0.45687
O    -0.98436   1.59010  -1.63757
O    -1.11279   2.17635   0.52635
C    -1.46328   3.51799   0.14904
C    -1.87647  -0.75010   0.31784
C    -2.69421  -1.09128  -0.76946
C    -3.94197  -1.67896  -0.55314
C    -4.38541  -1.92629   0.75056
C    -3.57525  -1.57766   1.83457
C    -2.32623  -0.98582   1.62140
C     0.36849  -0.89329  -0.92589
C     0.83670  -0.16486  -2.16930
O     0.69397  -0.63829  -3.27991
C     1.55933  -1.38314  -0.03081
C     2.88794  -1.52004  -0.77768
C     1.18101  -2.73042   0.59936
H     4.53768   2.00684  -0.36901
H     5.49610   1.63372   1.11082
H     4.16943   2.85164   1.17294
H     1.95970  -0.71092   2.02759
H    -2.36555   3.51713  -0.47855
H    -1.64943   4.05478   1.08595
H    -0.63111   3.98293  -0.39863
H    -2.35317  -0.89691  -1.78858
H    -4.56881  -1.94656  -1.40686
H    -5.36051  -2.38894   0.91990
H    -3.91524  -1.76583   2.85574
H    -1.69520  -0.71192   2.46629
H    -0.18291  -1.76507  -1.29552
H     1.39049   0.78484  -2.02269
H     2.79179  -2.27530  -1.57184
H     3.67780  -1.84867  -0.08635
H     3.22112  -0.58281  -1.24635
H     1.05199  -3.49078  -0.18526
H     0.24201  -2.66036   1.16734
H     1.97590  -3.06735   1.28238
