29
Generated by autodE on: 2022-06-20. E = -840.950861 Ha
C     3.75045  -2.38080  -0.49156
O     2.66009  -1.45993  -0.37349
C     2.93976  -0.16721  -0.62375
O     4.05565   0.23289  -0.93419
C     1.80608   0.72450  -0.49800
O     0.66269   0.19838  -0.16859
C    -0.58241   0.55159   0.05013
C    -1.00126   1.95558  -0.07244
O    -2.13945   2.36562   0.09196
O     0.01850   2.76449  -0.39349
C    -0.28558   4.15835  -0.54339
C    -1.45909  -0.56335   0.40726
C    -2.82891  -0.39358   0.71150
C    -3.62190  -1.49092   1.04893
C    -3.08094  -2.77838   1.09357
C    -1.72477  -2.96017   0.79529
C    -0.92377  -1.87397   0.45762
H     3.33884  -3.36845  -0.25320
H     4.15373  -2.37655  -1.51505
H     4.55353  -2.12529   0.21547
H     1.91068   1.79007  -0.67802
H    -0.68412   4.56672   0.39626
H     0.66209   4.64546  -0.79941
H    -1.02087   4.30528  -1.34737
H    -3.26593   0.60058   0.68258
H    -4.67797  -1.33281   1.28017
H    -3.70750  -3.63311   1.35809
H    -1.28624  -3.96039   0.82575
H     0.12947  -2.03277   0.22844
