15
Generated by autodE on: 2022-06-06. E = -661.547920 Ha
C    -3.96021   0.47801  -0.12030
O    -2.51772   0.52411  -0.16317
C    -1.88038  -0.54956   0.25161
O    -2.34998  -1.58011   0.66825
C    -0.39753  -0.35904   0.15026
O     0.44078  -1.26623   0.48852
C     1.83652  -0.71700   0.24830
O     2.79009  -1.39603   0.49499
C     1.52626   0.56147  -0.24262
C     2.36001   1.59677  -0.67072
N     3.07750   2.44684  -1.02384
O     0.14337   0.72713  -0.28278
H    -4.32463  -0.34856  -0.74568
H    -4.29604   0.34101   0.91684
H    -4.29825   1.44184  -0.51417
