47
Generated by autodE on: 2022-06-06. E = -1889.292189 Ha. Imaginary frequency = -308.9 cm-1
C    -4.11289  -1.20242  -1.76152
O    -2.71659  -1.52160  -1.59028
C    -2.22663  -1.38220  -0.37823
O    -2.83536  -1.08089   0.62412
C    -0.75183  -1.62948  -0.35189
O    -0.21311  -2.26940   0.68268
C     1.12042  -2.61600   0.32531
O     1.89665  -3.08837   1.11271
C     1.17892  -2.22120  -1.05672
C     2.17739  -2.49268  -2.00695
N     3.02875  -2.73137  -2.76451
O    -0.07043  -1.84822  -1.45889
C     1.48323   0.04014  -0.07828
C     0.30180   0.37443   0.08061
C    -0.63188   1.43090   0.53433
C    -1.29508   1.06271   1.87951
O    -2.21576   1.67196   2.37240
O    -0.68617   0.03342   2.45218
C    -1.23689  -0.45708   3.68379
C    -1.67784   1.69664  -0.56238
O    -1.66081   1.13253  -1.63629
O    -2.54227   2.64192  -0.23420
C    -3.52106   3.00270  -1.22563
C     0.15689   2.77225   0.74387
C     1.35206   2.72979   1.71094
C     2.76341   2.51064   1.12018
C     3.34935   1.09384   1.13752
C     2.93300   0.14203   0.01162
Cl    3.58416   0.72182  -1.61211
H    -4.30898  -0.18250  -1.40408
H    -4.72963  -1.92037  -1.20382
H    -4.30443  -1.28132  -2.83659
H    -1.20460   0.32367   4.45649
H    -2.27419  -0.78292   3.52387
H    -0.60959  -1.30823   3.97088
H    -3.02274   3.36490  -2.13558
H    -4.15178   2.13609  -1.46811
H    -4.12239   3.79918  -0.77390
H    -0.58587   3.49451   1.10824
H     0.48425   3.11536  -0.24972
H     1.36556   3.71574   2.19956
H     1.16826   2.00560   2.52209
H     3.45646   3.12725   1.71257
H     2.80986   2.91511   0.09505
H     3.08350   0.58694   2.08086
H     4.44826   1.14859   1.10599
H     3.41009  -0.83294   0.16688
