51
Generated by autodE on: 2022-06-08. E = -1383.678607 Ha
C     3.95762   3.28496  -0.28123
N     2.66208   2.63705  -0.26454
C     2.49311   1.31941  -0.42796
O     3.40313   0.50176  -0.59758
C     1.04938   0.87155  -0.41903
N     0.11375   1.64334  -0.81643
C    -1.17828   0.94669  -0.73259
C    -1.61445   0.64569  -2.10919
N    -1.99431   0.55316  -3.19206
C    -2.30041   1.86993  -0.17951
O    -3.45440   1.42912  -0.12946
N    -1.91567   3.08512   0.19445
C    -2.81369   4.08084   0.74853
C    -0.91179  -0.31425   0.20416
C    -1.18430   0.08397   1.67282
C    -1.73496  -1.58837  -0.05088
O    -1.24168  -2.70123   0.18959
N    -3.00621  -1.40837  -0.42464
C    -3.94325  -2.49865  -0.61361
C     0.63127  -0.53623  -0.02741
C     1.34716  -0.97194   1.27072
O     2.01337  -0.15544   1.91425
N     1.14246  -2.24328   1.63403
C     1.59002  -2.76902   2.90790
C     0.89715  -1.43782  -1.27321
O     0.02002  -1.58309  -2.12336
N     2.12186  -1.97368  -1.36640
C     2.54696  -2.69545  -2.55148
H     4.09865   3.86927  -1.20478
H     4.05410   3.96285   0.57913
H     4.74045   2.51941  -0.22572
H     1.82652   3.21037  -0.18665
H    -0.93420   3.31927   0.06105
H    -2.85417   4.96764   0.09824
H    -2.47061   4.39168   1.74644
H    -3.81806   3.65019   0.83151
H    -0.95371  -0.75797   2.33673
H    -0.57371   0.94435   1.97439
H    -2.24345   0.33028   1.80999
H    -3.36447  -0.44813  -0.46264
H    -4.68740  -2.52984   0.19874
H    -3.39658  -3.44863  -0.62737
H    -4.47543  -2.37674  -1.56860
H     0.40234  -2.73461   1.12111
H     1.86819  -3.82665   2.79887
H     0.80112  -2.69167   3.67554
H     2.46486  -2.20287   3.25050
H     2.84819  -1.55713  -0.78647
H     1.70324  -3.26808  -2.95599
H     3.35594  -3.38836  -2.28464
H     2.91233  -2.01041  -3.33544
