21
Generated by autodE on: 2022-06-08. E = -641.267754 Ha
C     3.15086   0.96534   1.12211
N     3.56005  -0.17445   0.32027
C     2.75164  -0.97591  -0.38354
O     3.08006  -1.94685  -1.06618
C     1.32826  -0.65374  -0.32783
N     0.16622  -0.54541  -0.38898
C    -1.13339  -0.28016  -0.35165
C    -2.02319  -1.10563  -1.06942
N    -2.79340  -1.76599  -1.64963
C    -1.53777   0.89008   0.46551
O    -0.68397   1.55605   1.06837
N    -2.86071   1.15849   0.49480
C    -3.43281   2.25579   1.24772
H     3.43002   0.81815   2.17588
H     3.62472   1.88721   0.75409
H     2.06116   1.09663   1.07166
H     4.54990  -0.41134   0.27368
H    -3.49392   0.55997  -0.02657
H    -2.62360   2.81268   1.73369
H    -3.98699   2.94073   0.58689
H    -4.12370   1.88753   2.02283
