30
Generated by autodE on: 2022-06-08. E = -742.329020 Ha
C     3.36240  -1.05519   2.01884
N     2.21636  -0.39015   1.43139
C     2.22376  -0.01449   0.14389
O     3.22916  -0.11688  -0.57462
C     0.97154   0.63054  -0.42095
C     1.30521   1.74944  -1.37011
C    -0.29558   0.20308  -0.20896
C    -1.45232   0.82878  -0.95590
O    -2.06845   0.18745  -1.81945
N    -1.78870   2.07336  -0.58752
C    -2.83366   2.82144  -1.26181
C    -0.72179  -0.94143   0.67736
O    -0.39215  -1.02356   1.87360
N    -1.51908  -1.84668   0.09452
C    -2.09742  -2.94809   0.83955
H     4.26798  -0.43896   1.91334
H     3.56207  -2.02893   1.54032
H     3.16885  -1.21968   3.08615
H     1.30755  -0.44368   1.90249
H     1.76878   2.58495  -0.81846
H     0.43684   2.13170  -1.91737
H     2.05412   1.39539  -2.09285
H    -1.19102   2.55210   0.07921
H    -3.09753   3.69497  -0.65316
H    -3.72489   2.19171  -1.39196
H    -2.50767   3.16672  -2.25724
H    -1.83654  -1.64558  -0.85262
H    -2.63478  -3.60292   0.14322
H    -1.31206  -3.53050   1.34349
H    -2.80162  -2.59061   1.60879
