51
Generated by autodE on: 2022-06-08. E = -1383.592593 Ha. Imaginary frequency = -312.2 cm-1
C     4.12402   3.06167  -0.57566
N     2.73031   2.65134  -0.59660
C     2.38265   1.41440  -0.96670
O     3.14648   0.55436  -1.39729
C     0.92657   1.10711  -0.83449
N    -0.12396   1.57411  -1.18891
C    -1.44039   1.37310  -1.24149
C    -1.97798   0.77316  -2.41058
N    -2.42360   0.27075  -3.36250
C    -2.36570   2.02855  -0.28738
O    -3.56257   1.69063  -0.27231
N    -1.83628   2.92295   0.56058
C    -2.59770   3.46781   1.66951
C    -0.99123  -0.79729   0.27874
C    -1.50748  -0.26546   1.59371
C    -1.93225  -1.67464  -0.51190
O    -1.54754  -2.73736  -1.01751
N    -3.22847  -1.29866  -0.55323
C    -4.18565  -2.04338  -1.34726
C     0.38380  -0.84138   0.04856
C     1.27962  -0.65224   1.26828
O     1.81948   0.41961   1.55905
N     1.43722  -1.75994   2.01817
C     2.23096  -1.75540   3.23475
C     0.94497  -1.56011  -1.16592
O     0.59444  -1.23678  -2.30756
N     1.87718  -2.50107  -0.94458
C     2.60017  -3.10916  -2.04456
H     4.57367   2.96829  -1.57525
H     4.17576   4.10869  -0.25601
H     4.70542   2.44115   0.12476
H     2.01698   3.27793  -0.23453
H    -0.83879   3.10891   0.52042
H    -2.07593   4.35056   2.05897
H    -2.70876   2.73239   2.48363
H    -3.59996   3.76476   1.33200
H    -1.52380  -1.07782   2.34092
H    -0.87163   0.54072   1.98042
H    -2.53443   0.11181   1.52047
H    -3.47135  -0.33446  -0.32110
H    -4.18916  -3.10400  -1.05696
H    -3.95317  -1.98442  -2.42395
H    -5.18696  -1.62684  -1.17898
H     0.85394  -2.56757   1.81548
H     2.36362  -2.78950   3.57552
H     1.74041  -1.17483   4.03342
H     3.21768  -1.31060   3.04258
H     2.16993  -2.70049   0.00524
H     1.91475  -3.62825  -2.73165
H     3.31473  -3.83619  -1.64019
H     3.15006  -2.34689  -2.62032
