47
Generated by autodE on: 2022-06-02. E = -1330.843039 Ha
C     3.45708   3.43848   2.30972
N     3.12849   2.44731   1.30595
C     1.87264   2.29713   0.86409
O     0.92531   3.00804   1.24100
C     1.60796   1.23015  -0.13764
C     2.21086   0.07117  -0.49325
C     3.46649  -0.53552  -0.02897
O     4.38718   0.05909   0.51296
O     3.49247  -1.84382  -0.28258
C     4.66760  -2.56479   0.12128
C     1.19179  -0.64966  -1.37505
O     0.53577   0.44699  -2.01659
C     0.25046   1.18290  -0.82447
C    -0.58845   0.16691   0.02189
C     0.07420  -1.17086  -0.42527
C    -1.04413  -1.92230  -1.20316
C    -1.51729  -3.08689  -0.43378
N    -1.88343  -4.00192   0.17861
N    -2.14046  -0.98204  -1.45070
C    -2.08041   0.02739  -0.39673
C    -2.62401   1.36889  -0.92738
C    -2.86906   2.47124   0.05841
O    -2.79452   1.50565  -2.12466
C    -2.91689  -0.41010   0.83574
O    -2.66345   0.01004   1.96712
N    -3.92873  -1.23505   0.53623
C    -4.73884  -1.89431   1.53777
H     4.54314   3.44401   2.46205
H     2.96390   3.22084   3.27181
H     3.13629   4.44130   1.98862
H     3.82243   1.75071   1.02204
H     4.81114  -2.48147   1.20790
H     4.49112  -3.60824  -0.16238
H     5.55245  -2.17018  -0.39811
H     1.57874  -1.37492  -2.09701
H    -0.20629   2.15058  -1.04572
H    -0.51084   0.38334   1.09072
H     0.48416  -1.76747   0.39651
H    -0.67084  -2.31231  -2.16129
H    -1.99549  -0.51083  -2.34371
H    -2.00758   2.59496   0.73133
H    -3.73708   2.21709   0.68751
H    -3.07022   3.40528  -0.48124
H    -3.92869  -1.58406  -0.42053
H    -4.76641  -1.28124   2.44730
H    -4.32546  -2.88514   1.79270
H    -5.76339  -2.02827   1.16414
