21
Generated by autodE on: 2022-07-27. E = -587.118689 Ha
C    -1.81872  -1.59322  -0.33613
N    -1.41208  -0.90265   0.87306
C    -0.53365   0.11186   0.98214
O    -0.27891   0.66171   2.06091
C     0.10288   0.60564  -0.28051
N     0.98417  -0.10411  -0.99514
C     1.55598  -1.29883  -0.88013
C     1.38364  -2.14937   0.22566
N     1.28818  -2.87987   1.13257
C    -0.13539   1.94493  -0.81099
C    -1.09715   2.83892  -0.08118
O     0.44221   2.30387  -1.84635
H    -1.62180  -0.96565  -1.21472
H    -1.29563  -2.55520  -0.45785
H    -2.89909  -1.79170  -0.29780
H    -1.77406  -1.25071   1.75928
H     1.27913   0.44785  -1.82031
H     2.23962  -1.59508  -1.67558
H    -0.70479   3.06951   0.92097
H    -2.06391   2.32989   0.06092
H    -1.24256   3.76693  -0.64821
