47
Generated by autodE on: 2022-06-02. E = -1330.751607 Ha. Imaginary frequency = -321.3 cm-1
C     3.88374   3.55060   2.13269
N     3.44122   2.49976   1.24029
C     2.14176   2.33603   0.95248
O     1.24708   3.08193   1.38514
C     1.76120   1.20760   0.06462
C     2.33099   0.04514  -0.32989
C     3.65729  -0.51861  -0.05858
O     4.62065   0.09760   0.37806
O     3.70483  -1.81791  -0.35893
C     4.95457  -2.49152  -0.14435
C     1.19477  -0.72257  -1.05014
O     0.50488   0.37572  -1.66150
C     0.31055   1.12005  -0.44972
C    -0.39351   0.06545   0.42817
C     0.17641  -1.12634   0.03595
C    -1.52483  -2.06329  -1.37746
C    -1.88336  -2.98421  -0.35890
N    -2.11125  -3.78331   0.45928
N    -2.14694  -0.88666  -1.57216
C    -2.58463  -0.01899  -0.62442
C    -2.66931   1.37317  -1.09662
C    -3.13831   2.43694  -0.14659
O    -2.30017   1.64457  -2.24252
C    -3.36380  -0.47951   0.57078
O    -3.20873   0.00572   1.69715
N    -4.29480  -1.42179   0.31535
C    -4.98546  -2.11093   1.38767
H     4.98025   3.55831   2.15832
H     3.50585   3.40020   3.15796
H     3.52821   4.53344   1.78693
H     4.09654   1.78063   0.92185
H     5.24000  -2.43871   0.91599
H     4.78972  -3.53248  -0.44406
H     5.74357  -2.03579  -0.75964
H     1.50109  -1.48019  -1.77608
H    -0.18547   2.07789  -0.61989
H    -0.88456   0.28991   1.37136
H     0.26487  -2.03180   0.63249
H    -1.01135  -2.48164  -2.24533
H    -1.84534  -0.37973  -2.41319
H    -2.45114   2.50330   0.71084
H    -4.13430   2.19749   0.25596
H    -3.16670   3.39971  -0.67227
H    -4.37524  -1.79530  -0.62466
H    -5.48010  -1.39298   2.05758
H    -4.28322  -2.71618   1.98533
H    -5.74382  -2.77358   0.95355
