40
Generated by autodE on: 2022-06-19. E = -1047.598797 Ha
C     0.83438  -2.53309  -2.35836
O     0.55626  -2.11776  -1.01710
C    -0.08971  -0.90294  -0.85072
N    -1.45210  -0.91609  -1.36435
N    -2.07903   0.21576  -0.74072
C    -3.46447  -0.11245  -0.41131
N    -1.29049   0.48259   0.46318
C    -1.16214   1.75318   0.96076
C    -2.03400   2.81519   0.35912
O    -0.36818   1.97982   1.87579
C    -0.32929  -0.58290   0.66246
O    -0.99402  -1.59881   1.35805
C    -0.36863  -2.87210   1.55359
C     0.95771  -0.13708   1.37184
O     1.22787  -0.58327   2.47248
C     1.88574   0.74599   0.62249
C     2.94475   1.43893   1.41812
C     1.77589   0.91522  -0.72602
C     2.70494   1.82389  -1.47200
C     0.71209   0.24910  -1.50783
O     0.48993   0.53467  -2.67303
H    -0.06142  -2.46375  -2.99244
H     1.15570  -3.58026  -2.28942
H     1.64447  -1.93561  -2.80539
H    -1.86947  -1.77116  -0.97059
H    -3.99184  -0.31664  -1.35329
H    -3.53415  -0.99398   0.25112
H    -3.93916   0.74884   0.07301
H    -2.06424   2.72309  -0.73499
H    -3.06523   2.71505   0.73283
H    -1.64212   3.79370   0.66191
H     0.72455  -2.82075   1.49198
H    -0.65271  -3.21428   2.55948
H    -0.73453  -3.59484   0.80925
H     3.94179   1.26950   0.98238
H     2.77175   2.52812   1.40485
H     2.94471   1.09429   2.45877
H     2.45195   1.85856  -2.53788
H     2.65931   2.84608  -1.06226
H     3.74867   1.48633  -1.36425
