14
Generated by autodE on: 2022-06-19. E = -358.113478 Ha
C     2.51633   0.18731  -0.27254
C     1.02414   0.37424  -0.40075
O     0.54345   1.29285  -1.06632
N     0.33353  -0.61441   0.26753
N    -0.97205  -0.52646   0.43011
C    -1.75735   0.72207   0.24470
N    -1.64591  -1.51699   0.82890
H     2.80701  -0.81509  -0.62276
H     3.04096   0.95379  -0.85675
H     2.81265   0.25849   0.78636
H    -2.72747   0.55114   0.71907
H    -1.86399   0.91373  -0.82730
H    -1.22061   1.55438   0.71039
H    -0.97747  -2.29942   0.91093
