26
Generated by autodE on: 2022-06-19. E = -689.460829 Ha
C     2.81464  -1.63022  -0.11054
O     2.07092  -0.81846   0.80434
C     0.85530  -0.37842   0.36461
C     0.60861   0.92141   0.03633
O     1.44246   1.96087   0.02267
C     2.83892   1.83726   0.31148
C    -0.78246   1.34228  -0.35806
O    -0.98656   2.51625  -0.63531
C    -1.86648   0.32830  -0.41443
C    -3.22852   0.78902  -0.83307
C    -1.60773  -0.96366  -0.09346
C    -2.66727  -2.01896  -0.13526
C    -0.23692  -1.37482   0.33630
O    -0.00816  -2.53358   0.67918
H     3.75790  -1.88301   0.39162
H     2.27324  -2.55523  -0.35761
H     3.03211  -1.07234  -1.03651
H     3.24742   2.84929   0.19683
H     3.33042   1.16062  -0.40204
H     3.00057   1.48406   1.33797
H    -3.56352   0.24676  -1.73266
H    -3.23623   1.86419  -1.04690
H    -3.97030   0.57971  -0.04482
H    -3.09451  -2.10082  -1.14843
H    -3.50243  -1.75942   0.53639
H    -2.26628  -2.99529   0.16059
