40
Generated by autodE on: 2022-06-19. E = -1047.546248 Ha. Imaginary frequency = -447.0 cm-1
C    -0.54795  -2.15769  -2.98147
O    -0.33119  -2.04842  -1.57305
C     0.07133  -0.89127  -0.97460
N    -1.23908   0.41138  -1.27650
N    -2.13068   0.22476  -0.31227
C    -3.18512  -0.78874  -0.45934
N    -1.64246   0.37841   0.90809
C    -1.15136   1.60453   1.30530
C    -1.42654   2.84350   0.48640
O    -0.53054   1.68074   2.36676
C     0.12515  -1.02707   0.47184
O    -0.38607  -2.17675   0.94115
C    -0.78795  -2.28408   2.30902
C     1.17336  -0.30497   1.21657
O     1.53920  -0.67072   2.33257
C     1.78507   0.88973   0.56436
C     2.48041   1.88287   1.44140
C     1.76364   1.01450  -0.78664
C     2.42167   2.15389  -1.50218
C     1.17104  -0.06933  -1.60941
O     1.50086  -0.25006  -2.76991
H    -0.93095  -1.22894  -3.42731
H    -1.29969  -2.94947  -3.10717
H     0.37687  -2.44351  -3.50031
H    -1.66409   0.13431  -2.16877
H    -3.61580  -0.69968  -1.46498
H    -2.76659  -1.79582  -0.32155
H    -3.95684  -0.59594   0.29470
H    -0.56926   3.01091  -0.18442
H    -2.33288   2.76819  -0.12643
H    -1.49765   3.69780   1.17260
H    -1.20159  -1.32474   2.65245
H    -1.56579  -3.05991   2.33510
H     0.05392  -2.57779   2.94867
H     3.53723   1.99332   1.14799
H     2.01418   2.87566   1.33414
H     2.43587   1.58288   2.49441
H     2.25689   2.09338  -2.58501
H     2.03321   3.11620  -1.13210
H     3.50926   2.15955  -1.31756
