56
Generated by autodE on: 2022-06-03. E = -1377.570854 Ha
C     1.96003  -1.55903   4.90719
C     1.07408  -2.68906   5.36123
O     1.52806  -3.80761   5.50270
C    -0.41982  -2.38953   5.73744
C    -0.77897  -3.36619   6.88879
F    -2.00742  -3.12290   7.39258
F    -0.78521  -4.65703   6.54002
F     0.08608  -3.23123   7.91456
C    -0.45920  -0.94376   6.34400
C    -1.01472   0.15893   5.43595
C    -2.43995   0.55621   5.83719
C    -3.36624  -0.61187   6.17841
C    -3.77226  -1.57868   5.04628
C    -4.46134  -0.72274   3.94967
C    -4.81541  -2.55725   5.63599
C    -2.68256  -2.42355   4.37080
C    -1.35954  -2.67730   4.54785
C    -0.85411  -3.54765   3.34386
C    -0.68375  -4.96784   3.76716
N    -0.67132  -6.11102   3.96930
C     0.40072  -3.04274   2.61949
C     1.50435  -3.85699   2.34790
C     2.58751  -3.35761   1.61736
C     2.57097  -2.04212   1.14753
C     1.46256  -1.22770   1.40701
C     0.38388  -1.72754   2.13497
N    -1.97583  -3.46587   2.40705
C    -2.06237  -4.46821   1.36648
C    -3.16893  -3.24122   3.18530
H     2.51495  -1.19590   5.78893
H     1.41621  -0.71603   4.47143
H     2.69219  -1.95455   4.19220
H    -1.03805  -0.96305   7.27397
H     0.55648  -0.69592   6.66877
H    -0.98338  -0.16030   4.38488
H    -0.36565   1.04551   5.50285
H    -2.37882   1.18910   6.73956
H    -2.88633   1.18905   5.05402
H    -4.31213  -0.18675   6.55059
H    -2.96016  -1.17899   7.02215
H    -3.72737  -0.19038   3.32612
H    -5.09760  -1.32432   3.28740
H    -5.10746   0.02790   4.42926
H    -5.65504  -1.98768   6.06391
H    -4.37100  -3.16910   6.43483
H    -5.22589  -3.23262   4.87166
H     1.52999  -4.88373   2.71567
H     3.44505  -4.00296   1.41413
H     3.41782  -1.65196   0.57820
H     1.44087  -0.19798   1.04308
H    -0.48123  -1.09472   2.33593
H    -2.85344  -4.18015   0.65826
H    -2.30024  -5.48168   1.74877
H    -1.11240  -4.52248   0.81436
H    -3.61444  -4.18684   3.56859
H    -3.93668  -2.75395   2.57249
