34
Generated by autodE on: 2022-06-03. E = -880.730094 Ha
C    -2.84037  -0.41087  -1.08888
C    -1.62038   0.10646  -1.78819
O    -1.61697   0.43353  -2.95803
C    -0.31212   0.16682  -0.95474
C     0.54570   1.35388  -1.43165
F     1.00790   1.19860  -2.67910
F    -0.15932   2.50010  -1.40028
F     1.62150   1.53794  -0.64237
C    -0.53445   0.27413   0.48580
C    -0.40630   0.00599   1.66099
C     0.00453  -0.68256   2.88956
C    -1.14148  -1.58109   3.39129
C     0.42151   0.29923   3.99503
C     1.23236  -1.54535   2.45054
C     1.10783  -2.32194   1.12266
C     1.52686  -1.59510  -0.18734
C     0.42457  -1.20271  -1.19246
H    -3.62685  -0.62621  -1.82325
H    -2.60774  -1.30393  -0.49049
H    -3.19331   0.36116  -0.38493
H    -0.82073  -2.11942   4.29689
H    -1.43259  -2.32185   2.63170
H    -2.02924  -0.98047   3.64154
H    -0.43676   0.90134   4.33104
H     0.81160  -0.25747   4.86150
H     1.20800   0.98301   3.64107
H     1.42685  -2.25519   3.27187
H     2.11321  -0.88444   2.39398
H     1.75720  -3.20588   1.22070
H     0.08668  -2.72504   1.01630
H     2.18528  -2.27915  -0.74526
H     2.14958  -0.71953   0.05018
H    -0.34978  -1.98549  -1.19473
H     0.83503  -1.16852  -2.21200
