22
Generated by autodE on: 2022-06-03. E = -496.753484 Ha
C     1.89262  -0.97063  -1.61249
N     1.95965  -0.35926  -0.45374
C     3.30112  -0.21508   0.15640
C     0.89973   0.18568   0.26065
C     1.21739   1.02186   1.34247
N     1.43239   1.72263   2.25997
C    -0.51714  -0.02392  -0.07089
C    -1.45304   0.99370   0.22448
C    -2.81683   0.81319  -0.00321
C    -3.29431  -0.38755  -0.53905
C    -2.38373  -1.40865  -0.83004
C    -1.01816  -1.23481  -0.60087
H     2.80773  -1.37040  -2.04298
H     0.94513  -1.04646  -2.13883
H     3.55556   0.85012   0.22251
H     4.03562  -0.72937  -0.46994
H     3.29121  -0.65098   1.16269
H    -1.09878   1.94019   0.63885
H    -3.51163   1.62314   0.23292
H    -4.36146  -0.52645  -0.72623
H    -2.73916  -2.35960  -1.23495
H    -0.34317  -2.06426  -0.81394
