56
Generated by autodE on: 2022-06-03. E = -1377.487516 Ha. Imaginary frequency = -186.0 cm-1
C     2.08174  -1.00135   4.94969
C     0.60599  -1.19477   4.76035
O    -0.01160  -0.56846   3.92145
C    -0.17180  -2.15449   5.70690
C     0.68127  -3.36048   6.15165
F    -0.06930  -4.26022   6.80793
F     1.25880  -3.99550   5.11658
F     1.68209  -3.01689   6.98627
C    -0.54601  -1.34968   7.00633
C    -1.19968   0.02643   6.83292
C    -2.49406   0.15427   6.01320
C    -3.62565  -0.83163   6.36465
C    -3.94724  -1.87884   5.25584
C    -4.55309  -1.16676   4.03233
C    -4.95104  -2.90118   5.81123
C    -2.64464  -2.52739   4.91830
C    -1.42115  -2.61708   5.06582
C    -0.91607  -4.42096   2.97539
C    -0.93084  -5.49664   3.89616
N    -0.94589  -6.40490   4.63322
C     0.36642  -4.11337   2.31228
C     1.34527  -5.12714   2.21600
C     2.60660  -4.86964   1.68054
C     2.93063  -3.59068   1.21646
C     1.97294  -2.57537   1.30258
C     0.71290  -2.82830   1.84563
N    -2.16010  -3.99999   2.54920
C    -2.28391  -3.07065   1.41913
C    -3.24253  -4.15975   3.30464
H     2.41665  -0.17240   4.31393
H     2.32254  -0.79822   6.00316
H     2.61697  -1.91921   4.66019
H    -1.19891  -2.01234   7.59249
H     0.37184  -1.20527   7.59371
H    -0.45864   0.72803   6.41491
H    -1.39614   0.38248   7.85892
H    -2.85356   1.18696   6.14871
H    -2.24690   0.06761   4.94654
H    -4.55964  -0.28445   6.57206
H    -3.38117  -1.37924   7.28941
H    -4.80667  -1.87752   3.23413
H    -5.47686  -0.64554   4.32954
H    -3.85969  -0.42301   3.61334
H    -5.25565  -3.62889   5.04514
H    -4.52205  -3.45345   6.66154
H    -5.85670  -2.38090   6.16115
H     1.11286  -6.13208   2.57394
H     3.34044  -5.67732   1.62241
H     3.91922  -3.38629   0.79916
H     2.21205  -1.56528   0.96105
H     0.01393  -2.00352   1.94602
H    -2.09299  -2.04461   1.76244
H    -3.30562  -3.13686   1.03022
H    -1.57627  -3.33810   0.62830
H    -3.22035  -4.88944   4.10958
H    -4.19797  -3.85958   2.88350
