42
Generated by autodE on: 2022-06-21. E = -1137.156596 Ha
C     1.70730   3.05273   1.18310
N     1.82368   1.78506   0.48796
C     1.26289   0.66996   0.95829
O     0.77593   0.57608   2.09154
C     1.22187  -0.55685   0.00133
C     2.60105  -0.80794  -0.63778
C     3.21166  -2.16670  -0.50129
O     3.14329   0.08669  -1.26729
N     0.73469  -1.70660   0.76333
C    -0.53760  -2.17393   0.18478
C    -0.27787  -3.29429  -0.75419
N    -0.04684  -4.14355  -1.50795
C    -1.44402  -2.67603   1.23053
N    -2.15573  -3.06511   2.05755
C    -1.12840  -0.95785  -0.58650
C    -1.84793   0.01238   0.36499
C    -1.69611   1.45071  -0.05881
C    -2.40817   2.53100   0.64064
N    -3.30388   2.15857   1.58734
O    -2.20316   3.74077   0.40706
C    -0.85480   1.80616  -1.06991
N    -0.01529   0.95375  -1.71046
C     0.65197   1.33157  -2.94798
C     0.15992  -0.37016  -1.18704
H     1.98352   2.94244   2.24126
H     2.37950   3.78020   0.71192
H     0.67372   3.43537   1.13062
H     2.21656   1.75512  -0.44897
H     3.35469  -2.41195   0.56165
H     4.17043  -2.18988  -1.03462
H     2.53068  -2.92918  -0.91068
H     0.57360  -1.38809   1.72326
H    -1.79900  -1.28471  -1.39090
H    -2.91081  -0.27633   0.39283
H    -1.47045  -0.10774   1.39324
H    -3.79965   2.88316   2.09496
H    -3.51807   1.19085   1.79297
H    -0.81627   2.84594  -1.39982
H     0.58129   2.41985  -3.07476
H     0.18046   0.84711  -3.82073
H     1.71146   1.04907  -2.91906
H     0.48979  -1.01568  -2.01179
