22
Generated by autodE on: 2022-06-21. E = -679.394809 Ha
C     1.62917  -1.89686   1.36098
N     2.02705  -0.52206   1.12001
C     1.45983   0.33737   0.26748
O     1.76461   1.52889   0.16475
C     0.40752  -0.19712  -0.67165
N    -0.87524   0.02199  -0.49277
C    -1.59329   0.54430   0.53751
C    -0.98889   0.93425   1.75235
N    -0.52125   1.25081   2.76414
C    -2.99256   0.66866   0.38671
N    -4.14182   0.77673   0.27841
C     0.73963  -0.81200  -1.98351
C     2.18299  -1.06188  -2.28534
O    -0.17703  -1.08804  -2.75124
H     2.49827  -2.56649   1.28709
H     0.88463  -2.21192   0.61882
H     1.18428  -2.00261   2.36275
H     2.74790  -0.12318   1.71989
H    -1.42487  -0.28222  -1.31689
H     2.59997  -1.76714  -1.54826
H     2.75204  -0.12261  -2.19489
H     2.28934  -1.47294  -3.29656
