51
Generated by autodE on: 2022-10-22. E = -1552.618808 Ha
C   -11.87243  -2.31442   8.92310
N   -10.73122  -3.17407   8.65614
C    -9.78695  -2.81692   7.78701
O    -9.76920  -1.75436   7.16937
C    -8.56750  -3.77817   7.61053
C    -8.78793  -5.14419   8.12408
N    -8.94107  -6.21626   8.53704
O    -7.48715  -3.21314   8.33892
C    -6.48303  -2.72579   7.44678
C    -6.50096  -1.24872   7.53437
N    -6.59889  -0.09724   7.61912
C    -5.16511  -3.35504   7.94628
O    -4.82409  -4.46655   7.61398
O    -4.56745  -2.59594   8.84454
C    -3.34898  -3.10493   9.41877
C    -6.89944  -3.21182   6.05422
C    -8.10286  -3.79647   6.16067
C    -9.05411  -4.41784   5.14598
F   -10.24890  -4.62128   5.82599
F    -9.37123  -3.52225   4.16658
C    -8.66764  -5.74952   4.54046
C    -7.40517  -5.77424   3.68245
C    -6.08922  -5.64482   4.47041
C    -5.34375  -4.31807   4.35266
C    -6.06746  -3.00686   4.78927
O    -6.88623  -2.58536   3.71795
C    -7.53896  -1.33559   3.91896
C    -4.87617  -2.02544   4.96738
C    -4.25061  -1.47083   3.72002
O    -4.39134  -1.81486   6.06433
H   -12.53367  -2.81877   9.63692
H   -11.54801  -1.35301   9.34973
H   -12.43054  -2.10977   7.99679
H   -10.67521  -4.07128   9.12847
H    -3.54038  -4.05905   9.92899
H    -3.01570  -2.34556  10.13427
H    -2.59792  -3.24606   8.62888
H    -8.57737  -6.46513   5.37242
H    -9.54241  -6.04963   3.94221
H    -7.46998  -5.00123   2.90214
H    -7.41330  -6.74028   3.15649
H    -6.25748  -5.87939   5.53348
H    -5.38088  -6.40754   4.11124
H    -5.04613  -4.14482   3.30730
H    -4.42079  -4.40117   4.94418
H    -8.24598  -1.37023   4.76108
H    -6.81344  -0.52352   4.10163
H    -8.09184  -1.11612   2.99645
H    -4.93293  -1.45278   2.86410
H    -3.39622  -2.12213   3.46763
H    -3.85303  -0.46937   3.93419
