22
Generated by autodE on: 2022-10-22. E = -774.476988 Ha
C    -3.03118   1.44530   2.26559
N    -2.05121   0.84719   1.37938
C    -2.27513   0.66267   0.06732
O    -3.34616   0.84187  -0.51967
C    -1.11189   0.16741  -0.72093
C    -1.26279  -0.07473  -2.10645
N    -1.40828  -0.25623  -3.23031
O    -0.00028  -0.03294  -0.08568
C     1.20163  -0.47026  -0.36432
C     1.58664  -0.89099  -1.65509
N     1.93313  -1.24946  -2.69994
C     2.17758  -0.47208   0.73749
O     3.32564  -0.84110   0.57683
O     1.65988  -0.02971   1.87881
C     2.54040   0.00959   3.01554
H    -3.96901   1.58982   1.71735
H    -3.22185   0.79249   3.13093
H    -2.67695   2.41995   2.63539
H    -1.09490   0.76452   1.71538
H     1.90613   0.24702   3.87660
H     3.30088   0.79128   2.87436
H     3.03112  -0.96339   3.15448
