29
Generated by autodE on: 2022-10-22. E = -778.009600 Ha
C     1.69904   2.64731  -1.45563
O     1.36487   1.34142  -1.90469
C     0.27147   0.75019  -1.23418
C    -1.05245   1.51579  -1.52458
C    -1.29096   1.92656  -2.94917
O    -1.86921   1.69813  -0.64314
C     0.46593   0.59333   0.21144
C     0.43808   0.09181   1.31398
C     0.23717  -1.03912   2.22154
F     1.45025  -1.62484   2.50297
F    -0.27080  -0.65311   3.43404
C    -0.69364  -2.05369   1.56775
C    -0.31316  -2.47900   0.13678
C    -0.84549  -1.63308  -1.05416
C     0.13924  -0.70101  -1.78620
H     1.95638   2.64681  -0.38165
H     2.57416   2.97138  -2.03457
H     0.87694   3.36652  -1.62062
H    -1.97420   2.78588  -2.97262
H    -1.78270   1.08301  -3.46379
H    -0.35890   2.14539  -3.48415
H    -0.69381  -2.92843   2.23781
H    -1.70584  -1.62122   1.58771
H     0.78237  -2.58440   0.06705
H    -0.71236  -3.49647   0.01320
H    -1.73902  -1.06718  -0.74152
H    -1.20425  -2.34286  -1.81411
H    -0.14341  -0.61057  -2.84567
H     1.15721  -1.12015  -1.76228
