51
Generated by autodE on: 2022-10-22. E = -1552.483678 Ha. Imaginary frequency = -155.4 cm-1
C   -11.75956  -2.23860   7.56022
N   -10.73575  -3.13427   8.06632
C    -9.44962  -2.75063   8.12341
O    -9.05304  -1.60322   7.91956
C    -8.46475  -3.81765   8.48125
C    -8.86816  -5.04061   9.09753
N    -9.20652  -6.02994   9.60775
O    -7.20486  -3.55666   8.71825
C    -6.28736  -2.72438   8.31069
C    -6.45216  -1.40493   7.81715
N    -6.34546  -0.31899   7.40743
C    -4.93100  -3.17027   8.75671
O    -4.69617  -4.30674   9.10500
O    -4.06286  -2.16798   8.74824
C    -2.69467  -2.49706   9.03241
C    -6.94150  -3.71964   5.77558
C    -7.98315  -4.28230   6.11348
C    -9.22067  -4.92570   5.61197
F    -9.91518  -5.58424   6.59708
F   -10.06262  -3.90705   5.20467
C    -8.98882  -5.88530   4.45432
C    -7.99476  -5.39792   3.39233
C    -6.51153  -5.64849   3.76171
C    -5.57456  -4.43856   3.82761
C    -6.04464  -3.22473   4.70222
O    -6.77414  -2.38037   3.82244
C    -7.60579  -1.37197   4.38737
C    -4.74072  -2.55633   5.20036
C    -4.21786  -1.39883   4.40991
O    -4.14801  -3.04247   6.14302
H   -12.74513  -2.62663   7.84530
H   -11.62918  -1.23701   7.98987
H   -11.70904  -2.16032   6.46137
H   -10.95369  -4.12649   8.08734
H    -2.60308  -2.90995  10.04688
H    -2.13749  -1.55730   8.95099
H    -2.32475  -3.22600   8.29784
H    -8.64960  -6.83723   4.89012
H    -9.98601  -6.05702   4.01988
H    -8.17430  -4.33261   3.18431
H    -8.23034  -5.92901   2.45877
H    -6.46011  -6.17772   4.72573
H    -6.06566  -6.33884   3.02834
H    -5.40675  -4.00771   2.82916
H    -4.60200  -4.78695   4.20280
H    -8.50399  -1.80545   4.85345
H    -7.07456  -0.76329   5.13421
H    -7.91244  -0.72755   3.55211
H    -4.21007  -1.64050   3.33623
H    -3.20893  -1.14248   4.75702
H    -4.88523  -0.53193   4.53825
