72
Generated by autodE on: 2022-06-26. E = -1708.997895 Ha
C     5.46445   1.00980  -0.98768
O     4.23202   1.47848  -0.42792
C     3.18580   0.70016  -0.17327
C     3.05001  -0.63717  -0.41971
O     4.02821  -1.35410  -1.05247
C     4.73602  -2.29475  -0.23978
C     1.80762  -1.36087  -0.13776
O     1.72484  -2.54671  -0.45022
C     0.68018  -0.71315   0.66538
C     0.89865  -1.44520   2.02146
C    -0.77667  -0.99412   0.02756
C    -1.54231  -1.96668   0.94169
C    -2.37079  -1.49627   1.96704
C    -3.00292  -2.38204   2.84610
C    -2.80749  -3.75902   2.71932
C    -1.96851  -4.23988   1.70816
C    -1.34437  -3.35168   0.83083
C    -0.81691  -1.49742  -1.44449
C     0.12583  -1.13075  -2.41890
C    -0.03996  -1.46100  -3.76572
C    -1.16608  -2.17095  -4.18749
C    -2.12553  -2.53267  -3.24006
C    -1.95215  -2.19533  -1.89531
N    -1.41219   0.34006   0.06942
C    -2.73615   0.46595  -0.51456
C    -0.45184   1.43135  -0.01138
C    -0.00782   1.76700  -1.46862
C    -1.05538   2.08769  -2.49797
O     1.17359   1.79552  -1.77146
C    -1.01805   2.73901   0.56273
C    -2.04171   2.72610   1.52200
C    -2.51986   3.91592   2.07356
C    -1.98353   5.14421   1.67509
C    -0.96252   5.16888   0.72213
C    -0.48564   3.97654   0.17087
C     0.75620   0.85356   0.85331
C     0.55731   1.25649   2.33242
C     2.08685   1.49954   0.46289
O     2.32323   2.65649   0.77479
H     6.10739   1.89755  -1.04136
H     5.93202   0.25711  -0.33808
H     5.31106   0.59897  -1.99324
H     5.46926  -2.78495  -0.89395
H     4.05820  -3.05147   0.18129
H     5.26513  -1.77914   0.57904
H     0.14284  -1.18704   2.76659
H     1.89056  -1.18389   2.41644
H     0.87135  -2.52785   1.86891
H    -2.50881  -0.42262   2.08775
H    -3.64736  -1.98891   3.63618
H    -3.29937  -4.45301   3.40508
H    -1.79525  -5.31365   1.60290
H    -0.67716  -3.73791   0.05980
H     1.01457  -0.56700  -2.15495
H     0.72348  -1.15766  -4.48593
H    -1.29572  -2.43428  -5.23983
H    -3.02270  -3.07728  -3.54430
H    -2.73035  -2.47707  -1.18767
H    -3.11526   1.48306  -0.36647
H    -3.42965  -0.22343  -0.01213
H    -2.78082   0.24369  -1.59276
H    -0.59202   2.67924  -3.29853
H    -1.41709   1.14382  -2.93485
H    -1.91579   2.61836  -2.07529
H    -2.45939   1.77498   1.84831
H    -3.31641   3.88109   2.82054
H    -2.35969   6.07572   2.10445
H    -0.53149   6.12026   0.40193
H     0.32066   4.02384  -0.56193
H     1.36870   0.85840   2.95336
H    -0.39716   0.88249   2.71790
H     0.57377   2.34528   2.42904
