46
Generated by autodE on: 2022-06-26. E = -1019.528718 Ha
C     3.02098  -0.84151   2.90641
C     1.64785  -0.24467   2.65257
O     0.87020  -0.13338   3.64537
C     1.29021   0.17217   1.35038
C     1.95213  -0.20886   0.09278
C     2.01207   0.70029  -0.98832
C     2.57474   0.33709  -2.21048
C     3.10627  -0.94613  -2.39340
C     3.05614  -1.85925  -1.33628
C     2.47822  -1.50077  -0.11598
N     0.07675   0.91477   1.20284
C    -0.03379   2.16451   1.97120
C    -0.84700   0.53702   0.33254
C    -1.82233   1.47074  -0.24528
C    -1.43815   2.75599  -0.67668
C    -2.36956   3.60245  -1.27656
C    -3.69428   3.18554  -1.44507
C    -4.08282   1.90750  -1.02715
C    -3.15228   1.04916  -0.44495
C    -0.86462  -0.86714  -0.12271
C    -0.93077  -1.17031  -1.49077
C    -0.92543  -2.50202  -1.91455
C    -0.88039  -3.53433  -0.97494
C    -0.83730  -3.23486   0.39439
C    -0.81830  -1.91025   0.82112
H     3.74772  -0.65520   2.10551
H     2.93650  -1.93118   3.05470
H     3.40010  -0.41918   3.85050
H     1.60092   1.70530  -0.86540
H     2.60551   1.06320  -3.02699
H     3.54638  -1.23127  -3.35179
H     3.44851  -2.87098  -1.46807
H     2.39684  -2.24667   0.67530
H     0.32259   1.95134   2.98348
H     0.59441   2.94123   1.51539
H    -1.07631   2.49712   2.01549
H    -0.40251   3.07980  -0.57029
H    -2.05787   4.59125  -1.61999
H    -4.42264   3.85364  -1.91029
H    -5.11513   1.57712  -1.16118
H    -3.45267   0.04956  -0.12651
H    -0.95969  -0.36009  -2.22124
H    -0.95817  -2.73129  -2.98186
H    -0.88224  -4.57550  -1.30551
H    -0.81528  -4.04165   1.13041
H    -0.76614  -1.66880   1.88430
