46
Generated by autodE on: 2022-07-28. E = -1019.527046 Ha
C     2.51618   2.34913  -0.80110
C     1.81418   1.18753  -0.11816
O     2.44786   0.09824  -0.05587
C     0.49266   1.35044   0.38639
C    -0.30002   2.57701   0.46859
C    -1.71397   2.51142   0.38714
C    -2.50635   3.65708   0.45988
C    -1.92043   4.91807   0.61195
C    -0.52756   5.00526   0.71542
C     0.26708   3.85977   0.66000
N    -0.10160   0.16992   0.92131
C    -0.51873   0.21830   2.33300
C    -0.08592  -0.96386   0.24280
C    -0.16320  -2.26520   0.93329
C     0.72739  -2.56639   1.97963
C     0.68319  -3.81584   2.59764
C    -0.25178  -4.77110   2.18448
C    -1.13250  -4.48102   1.13631
C    -1.07988  -3.24043   0.50136
C     0.02114  -0.97633  -1.22776
C     0.85234  -1.92394  -1.84887
C     0.94580  -1.97769  -3.24165
C     0.20036  -1.09618  -4.02741
C    -0.64173  -0.15763  -3.41479
C    -0.72656  -0.08995  -2.02664
H     3.14130   2.90959  -0.08660
H     1.82684   3.05712  -1.27963
H     3.18730   1.92328  -1.56135
H    -2.19977   1.54124   0.26418
H    -3.59311   3.56224   0.38890
H    -2.53927   5.81686   0.66190
H    -0.05088   5.97811   0.86218
H     1.34232   3.96135   0.79889
H    -1.01983   1.17613   2.51013
H    -1.21120  -0.59958   2.55856
H     0.36220   0.15875   2.98622
H     1.47180  -1.82804   2.28002
H     1.38593  -4.04740   3.40105
H    -0.28770  -5.74723   2.67358
H    -1.85880  -5.22771   0.80804
H    -1.75790  -3.01420  -0.32359
H     1.43748  -2.60968  -1.23467
H     1.60275  -2.71258  -3.71217
H     0.26713  -1.14173  -5.11691
H    -1.23926   0.52293  -4.02544
H    -1.38724   0.64011  -1.56024
