58
Generated by autodE on: 2022-06-09. E = -2001.646440 Ha
C    -1.50666 -12.96896  -8.07398
N    -2.62068 -12.17907  -7.58114
C    -3.36794 -11.44440  -8.40988
O    -3.12729 -11.36234  -9.62105
C    -4.62101 -10.76713  -7.77115
C    -5.11705  -9.48542  -8.51877
O    -5.65848  -8.57961  -7.87211
N    -5.00682  -9.47618  -9.84694
C    -5.40700  -8.31803 -10.62262
C    -5.75797 -11.82061  -7.90051
C    -7.17244 -11.36499  -7.49975
C    -7.70633 -12.02155  -6.23276
C    -7.13799 -11.54874  -4.89237
C    -5.62816 -11.71774  -4.60933
Cl   -5.51043 -11.77975  -2.74377
C    -5.03655 -13.10689  -4.92520
O    -3.87417 -13.28766  -5.22776
O    -5.92135 -14.07178  -4.76710
C    -5.46134 -15.42152  -4.97009
C    -4.71576 -10.60958  -5.11241
C    -4.30300 -10.31413  -6.36254
N    -3.29210  -9.32599  -6.29645
C    -2.77947  -8.57807  -7.25547
N    -2.26441  -7.95428  -8.09883
O    -3.28394  -8.73570  -5.01095
C    -3.97613  -9.66044  -4.14181
C    -2.92680 -10.40384  -3.39496
N    -2.03726 -10.95677  -2.89811
C    -4.86807  -8.79941  -3.26028
C    -5.92791  -8.12711  -3.88416
C    -6.75871  -7.29425  -3.13406
C    -6.52970  -7.12556  -1.76389
C    -5.46232  -7.78549  -1.14784
C    -4.62897  -8.62128  -1.89509
H    -0.77760 -12.33053  -8.59421
H    -1.84482 -13.74688  -8.77763
H    -1.01439 -13.44984  -7.22012
H    -2.94744 -12.35045  -6.62823
H    -4.38121 -10.18550 -10.23994
H    -5.30885  -8.55284 -11.68955
H    -4.77714  -7.44324 -10.38901
H    -6.45247  -8.05165 -10.41038
H    -5.45944 -12.72630  -7.35445
H    -5.75072 -12.11176  -8.95901
H    -7.21709 -10.27166  -7.39617
H    -7.85454 -11.61938  -8.32450
H    -7.59840 -13.11394  -6.31315
H    -8.78890 -11.82622  -6.17078
H    -7.66377 -12.11048  -4.10996
H    -7.36688 -10.48461  -4.73477
H    -4.66472 -15.65822  -4.25127
H    -6.33455 -16.06097  -4.80273
H    -5.08635 -15.53981  -5.99609
H    -6.09300  -8.25274  -4.95607
H    -7.58699  -6.77485  -3.62077
H    -7.18243  -6.47563  -1.17666
H    -5.27583  -7.65080  -0.08021
H    -3.80086  -9.14060  -1.40920
