40
Generated by autodE on: 2022-06-09. E = -1415.998869 Ha
C     1.56540   2.40914  -3.34446
N     1.21094   1.43059  -2.33283
C     0.67136   0.25236  -2.65672
O     0.45499  -0.08289  -3.82962
C     0.30340  -0.70900  -1.50114
C     1.04771  -2.06469  -1.61377
O     1.42875  -2.64814  -0.59507
N     1.17852  -2.56750  -2.84599
C     1.80154  -3.85500  -3.08127
C     0.50237  -0.11701  -0.18515
C     0.25049   0.49266   0.83111
C    -0.61264   1.14691   1.79098
Cl    0.17669   2.68740   2.46215
C    -0.86494   0.29693   3.04791
O    -1.92114   0.27811   3.63771
O     0.21470  -0.38452   3.40574
C     0.11417  -1.18157   4.59904
C    -1.91834   1.52853   1.07154
C    -2.58046   0.37677   0.28384
C    -2.17612   0.17013  -1.20262
C    -1.24295  -1.00007  -1.57266
H     0.67518   2.75587  -3.89267
H     2.26955   1.97997  -4.07315
H     2.03839   3.26823  -2.85430
H     1.32065   1.66790  -1.35137
H     0.87054  -1.98256  -3.62287
H     2.85094  -3.86133  -2.74526
H     1.77362  -4.07155  -4.15606
H     1.27028  -4.65594  -2.54369
H    -0.67792  -1.93505   4.48617
H    -0.10487  -0.54027   5.46462
H     1.08940  -1.66614   4.71868
H    -2.60858   1.90592   1.83893
H    -1.68825   2.36222   0.39245
H    -2.47440  -0.56983   0.84019
H    -3.65810   0.59893   0.29376
H    -1.77902   1.11274  -1.61530
H    -3.10708  -0.01871  -1.75879
H    -1.44646  -1.31783  -2.60481
H    -1.44287  -1.86164  -0.91726
