37
Generated by autodE on: 2022-06-17. E = -730.650239 Ha
C    -4.27066   1.10777   1.43926
N    -3.06205   0.81076   0.70609
C    -2.96390  -0.11284  -0.25977
O    -3.90077  -0.83087  -0.64450
C    -1.57155  -0.26048  -0.86450
N    -0.59369   0.70414  -0.32904
C     0.48244  -0.06549   0.33212
C     1.81229   0.64670   0.33149
C     2.53723   0.79937   1.52169
C     3.79146   1.41870   1.52401
C     4.33732   1.90004   0.33092
C     3.62321   1.75308  -0.86376
C     2.37425   1.12823  -0.86283
C     0.48939  -1.43443  -0.37720
C     1.22303  -2.52975   0.37973
C    -1.01030  -1.68617  -0.59031
C    -1.34704  -2.70096  -1.67345
H    -5.06419   0.42703   1.10612
H    -4.60085   2.14474   1.26576
H    -4.12124   0.97246   2.52221
H    -2.19744   1.32684   0.87058
H    -1.69392  -0.11619  -1.95007
H    -0.19637   1.23171  -1.10265
H     0.18911  -0.23933   1.38197
H     2.11052   0.42807   2.45700
H     4.34111   1.52846   2.46212
H     5.31516   2.38762   0.33019
H     4.04348   2.12411  -1.80179
H     1.83252   1.01099  -1.80553
H     0.95783  -1.29220  -1.36830
H     0.77932  -2.67942   1.37836
H     2.28610  -2.27541   0.51784
H     1.17628  -3.48963  -0.15810
H    -1.42421  -2.03827   0.37163
H    -0.93069  -3.69238  -1.43399
H    -0.93473  -2.38327  -2.64570
H    -2.43609  -2.80721  -1.78490
