25
Generated by autodE on: 2022-06-17. E = -573.281295 Ha
C     4.84012  -0.04591  -0.97956
N     3.95459   1.09686  -1.05419
C     2.62441   1.08968  -0.76248
O     1.95164   2.15562  -0.81735
C     2.01284  -0.15842  -0.39785
N     0.68858  -0.09285  -0.13047
C    -0.17499  -1.02414   0.22629
C    -1.57526  -0.77307   0.47469
C    -2.39296  -1.86292   0.85530
C    -3.75171  -1.68673   1.10939
C    -4.33491  -0.41973   0.99182
C    -3.53811   0.66967   0.61524
C    -2.17929   0.50205   0.35922
H     5.84829   0.26979  -1.27636
H     4.90044  -0.46332   0.04021
H     4.52584  -0.85518  -1.65922
H     4.34671   2.00873  -1.26255
H     2.51395  -1.11974  -0.32368
H     0.34991   0.87521  -0.23950
H     0.21527  -2.03818   0.33398
H    -1.94306  -2.85451   0.94896
H    -4.36158  -2.54507   1.40179
H    -5.39979  -0.28072   1.19105
H    -3.98258   1.66337   0.51968
H    -1.58814   1.37350   0.06659
