25
Generated by autodE on: 2022-07-27. E = -573.277518 Ha
C    -5.10582  -0.90574   0.44833
N    -4.03216  -0.79916  -0.51326
C    -2.75157  -0.50670  -0.12271
O    -2.51103  -0.18488   1.06784
C    -1.75746  -0.58310  -1.15420
N    -0.44445  -0.30268  -0.94888
C     0.23626   0.08975   0.12017
C     1.66055   0.33159   0.11094
C     2.26225   0.77655   1.31249
C     3.62955   1.03547   1.38045
C     4.44066   0.85781   0.25335
C     3.86175   0.41571  -0.94346
C     2.49539   0.15476  -1.01879
H    -5.17723   0.00641   1.06021
H    -4.97642  -1.75838   1.14027
H    -6.05497  -1.03822  -0.08714
H    -4.17389  -1.18909  -1.43828
H    -2.01261  -0.87549  -2.17068
H     0.11273  -0.42203  -1.79796
H    -0.33578   0.23023   1.03329
H     1.63415   0.91811   2.19559
H     4.06718   1.37957   2.32086
H     5.51261   1.06077   0.30543
H     4.48416   0.27156  -1.83007
H     2.08108  -0.19066  -1.96983
