23
Generated by autodE on: 2022-06-16. E = -351.521382 Ha
C     3.73769   0.45471   0.34706
C     2.47076   0.76426  -0.00644
C     2.14800   2.05628  -0.71261
C     1.38173  -0.16233   0.29621
C     0.07252   0.02964  -0.00390
C    -0.96839  -0.92448   0.32008
C    -2.29437  -0.80842   0.05569
C    -2.92186   0.36667  -0.63901
C    -3.25615  -1.89056   0.45790
H     3.96890  -0.48397   0.86005
H     4.57137   1.12928   0.13302
H     1.67179   1.86743  -1.68909
H     3.05401   2.65553  -0.88029
H     1.43560   2.66156  -0.12766
H     1.66921  -1.08708   0.81093
H    -0.22265   0.94900  -0.51684
H    -0.63369  -1.83350   0.83445
H    -3.68477   0.83129   0.01050
H    -2.20315   1.14303  -0.93125
H    -3.45577   0.03326  -1.54641
H    -3.79249  -2.28506  -0.42389
H    -2.75275  -2.72818   0.96263
H    -4.03376  -1.49161   1.13393
