15
Generated by autodE on: 2022-06-16. E = -250.750150 Ha
C     2.52437   0.68586  -0.36241
C     1.37870   0.63347   0.60825
N     0.28302   0.17101   0.25502
C    -0.88081  -0.28223  -0.00689
C    -1.95934   0.62727  -0.52609
C    -1.21222  -1.72911   0.23126
H     3.37721   0.12913   0.06027
H     2.29248   0.28750  -1.36774
H     2.86595   1.73013  -0.45642
H    -2.33203   0.26834  -1.50088
H    -1.59635   1.65744  -0.64469
H    -2.82167   0.63043   0.16383
H    -1.55046  -2.20756  -0.70394
H    -2.04306  -1.81716   0.95348
H    -0.34600  -2.28331   0.61803
