28
Generated by autodE on: 2022-07-27. E = -795.247276 Ha
C    -1.88819  -4.08193   0.53628
N    -1.34846  -2.75082   0.72830
C    -0.94565  -2.00282  -0.30250
O    -1.01315  -2.34987  -1.49157
C    -0.37442  -0.65246   0.02476
N     0.10723  -0.05437  -1.03928
C     0.85507   1.07875  -1.22920
C     0.94765   1.54543  -2.56115
N     1.02196   1.94945  -3.65417
C     1.71729   1.61369  -0.18656
C     2.58493   2.79036  -0.55411
O     1.76703   1.09497   0.93264
C    -0.53175  -0.04752   1.38429
O    -0.34154  -0.73176   2.39848
N    -1.03447   1.19575   1.41691
C    -1.15120   1.92170   2.66858
H    -1.12593  -4.77119   0.13725
H    -2.73036  -4.06037  -0.17128
H    -2.24162  -4.46318   1.50144
H    -1.14548  -2.39926   1.66462
H    -0.10443  -0.62085  -1.88345
H     3.16300   3.09944   0.32577
H     1.96495   3.63023  -0.90592
H     3.27458   2.52756  -1.37182
H    -1.08549   1.72822   0.55305
H    -0.15786   2.15435   3.08632
H    -1.69078   2.85861   2.48582
H    -1.70630   1.32594   3.40656
