28
Generated by autodE on: 2022-06-24. E = -795.253742 Ha
C    -1.80650  -3.08371  -0.81044
N    -1.22661  -1.75366  -0.83879
C    -1.41846  -0.87906   0.15817
O    -2.23227  -1.05314   1.07571
C    -0.64122   0.39599   0.08212
N     0.65656   0.47537  -0.08496
C     1.71144  -0.37718  -0.14910
C     1.59838  -1.76652   0.05518
N     1.55721  -2.91951   0.23595
C     2.99974   0.28695  -0.35525
C     4.23315  -0.56812  -0.39949
O     3.03359   1.51472  -0.47961
C    -1.29243   1.73762   0.21218
O    -0.62171   2.75704  -0.00731
N    -2.58673   1.74693   0.55671
C    -3.31047   2.98736   0.75209
H    -1.68747  -3.54303  -1.79889
H    -1.30539  -3.71582  -0.05907
H    -2.87578  -3.02849  -0.56359
H    -0.54751  -1.54326  -1.56378
H     0.98180   1.46421  -0.16563
H     5.11151   0.05980  -0.59359
H     4.36173  -1.09861   0.55789
H     4.14112  -1.33544  -1.18458
H    -2.99837   0.86617   0.86138
H    -4.38151   2.76527   0.83069
H    -3.14538   3.66375  -0.09849
H    -2.98713   3.50723   1.66957
