43
Generated by autodE on: 2022-06-01. E = -1836.818096 Ha
C     4.89884  -2.66990  -0.48497
N     3.98246  -1.93780   0.36880
C     2.75759  -1.58249  -0.05050
O     2.34362  -1.87462  -1.18200
C     1.90686  -0.75449   0.91388
C     2.09911  -1.08826   2.40907
C     1.09861  -0.37443   3.32368
C     1.01429   1.15667   3.14520
C    -0.24001   1.71316   2.45751
C    -0.41197   1.52849   0.94302
Cl    0.96802   2.41911   0.08119
Cl   -1.93228   2.42497   0.49553
C    -0.48690   0.10331   0.47227
C     0.46654  -0.85094   0.52483
N    -0.11877  -2.12526   0.30509
N    -1.54064  -1.90836   0.31715
N    -1.72811  -0.50942   0.03862
C    -2.11826  -0.28004  -1.32009
C    -1.36327   0.51061  -2.19643
C    -1.80753   0.72460  -3.50531
C    -2.99104   0.13794  -3.95943
C    -3.73636  -0.66605  -3.08722
C    -3.30919  -0.86842  -1.77565
H     5.81162  -2.89084   0.08135
H     5.16883  -2.08621  -1.37972
H     4.45205  -3.61789  -0.82256
H     4.28779  -1.67073   1.29746
H     2.22767   0.28446   0.74871
H     2.01377  -2.17642   2.55579
H     3.12002  -0.79676   2.70619
H     1.39046  -0.59818   4.36150
H     0.09747  -0.81665   3.19279
H     1.91616   1.54352   2.64353
H     1.01564   1.62391   4.14163
H    -0.29736   2.79510   2.64723
H    -1.13548   1.25858   2.91193
H     0.19884  -2.54119  -0.57589
H    -1.80814  -2.02056   1.29807
H    -0.42858   0.96035  -1.86127
H    -1.21141   1.34748  -4.17698
H    -3.33154   0.30283  -4.98418
H    -4.66338  -1.13271  -3.42960
H    -3.89078  -1.48654  -1.08960
