27
Generated by autodE on: 2022-06-01. E = -1439.524457 Ha
C     2.69956  -2.79278  -1.71697
N     1.82773  -1.64199  -1.58917
C     2.18021  -0.40237  -1.96641
O     3.26828  -0.12099  -2.47836
C     1.15509   0.72260  -1.73509
C    -0.11319   0.28707  -1.17876
C    -0.97546   0.00329  -0.34149
C    -1.52340   0.01542   0.99397
Cl   -2.27813  -1.58671   1.42762
Cl   -2.83179   1.29244   1.10034
C    -0.39385   0.33743   1.98839
C     0.48016   1.55861   1.63137
C     1.74801   1.33823   0.75564
C     1.72091   1.76929  -0.72618
H     2.12931  -3.66026  -2.07888
H     3.16371  -3.05827  -0.75284
H     3.49570  -2.56264  -2.43518
H     0.93199  -1.76362  -1.12579
H     1.03573   1.20708  -2.71671
H    -0.86388   0.47389   2.97346
H     0.23424  -0.56527   2.04717
H    -0.15249   2.34834   1.19378
H     0.82214   1.96106   2.59668
H     2.07477   0.28700   0.83217
H     2.55439   1.92658   1.21976
H     2.74431   1.99508  -1.06139
H     1.13653   2.69632  -0.83271
