16
Generated by autodE on: 2022-06-01. E = -397.214266 Ha
N     2.53772   1.10359   0.54414
N     2.42720  -0.17396   0.46793
N     1.40469  -0.91959   0.23468
C     0.13818  -0.37999   0.01017
C    -0.25430   0.98014   0.00246
C    -1.58864   1.32159  -0.24357
C    -2.55436   0.34293  -0.48472
C    -2.17613  -1.00744  -0.47939
C    -0.85452  -1.36072  -0.23602
H     3.52754   1.28204   0.74514
H     3.27230  -0.74766   0.60958
H     0.48369   1.75259   0.18817
H    -1.87162   2.37747  -0.24496
H    -3.59236   0.62493  -0.67544
H    -2.91913  -1.78669  -0.66603
H    -0.54931  -2.40904  -0.22901
