45
Generated by autodE on: 2022-06-20. E = -1013.954900 Ha
C     5.41761  -2.17151   0.43033
C     4.70414  -1.02757   0.40441
C     5.32988   0.30622   0.71538
C     3.27739  -1.07167   0.06544
C     2.45404  -0.00937   0.00109
C     1.00145  -0.11611  -0.32933
C     0.53316   0.88716  -1.41343
C     0.76737   0.36188  -2.75990
N     0.96086  -0.05461  -3.82594
N    -0.89336   1.15080  -1.14705
C    -1.32770   0.38750   0.02480
C    -2.35166   1.17583   0.87650
O    -2.80506   0.72856   1.93450
N    -2.67801   2.37739   0.38590
C    -3.53925   3.29225   1.10508
C    -1.91738  -0.95716  -0.44621
O    -1.72187  -1.38824  -1.56635
O    -2.63456  -1.59813   0.46466
C    -3.15156  -2.88751   0.09581
C     0.01131   0.16263   0.84130
C     0.38228   1.44659   1.59894
C    -0.02346  -1.01172   1.81571
H     4.95060  -3.13459   0.20244
H     6.48244  -2.17512   0.67962
H     6.39748   0.19975   0.95385
H     5.23191   0.99813  -0.13767
H     4.82878   0.78928   1.57072
H     2.86785  -2.06559  -0.14999
H     2.83563   0.99568   0.20293
H     0.79395  -1.13402  -0.68751
H     1.11798   1.81942  -1.33395
H    -1.46734   0.91693  -1.95415
H    -2.15071   2.68032  -0.42965
H    -3.81641   4.12139   0.44229
H    -4.45373   2.77869   1.43569
H    -3.04061   3.70529   1.99839
H    -3.81735  -2.79872  -0.77400
H    -3.70827  -3.24694   0.96845
H    -2.32557  -3.57321  -0.14077
H     0.41217   2.32903   0.94443
H     1.37222   1.33092   2.06233
H    -0.33767   1.63979   2.40626
H    -0.19233  -1.97040   1.30434
H     0.94426  -1.07685   2.33574
H    -0.81239  -0.87286   2.56725
