23
Generated by autodE on: 2022-06-20. E = -351.521386 Ha
C    -3.65655   0.96080   0.05240
C    -2.57369   0.16456   0.19072
C    -2.70660  -1.26726   0.64266
C    -1.24063   0.68912  -0.09880
C    -0.07833  -0.00308   0.00472
C     1.21924   0.56725  -0.29490
C     2.42323  -0.05312  -0.21103
C     2.61509  -1.47883   0.22208
C     3.68989   0.67640  -0.55924
H    -4.66541   0.59466   0.26235
H    -3.55659   2.00007  -0.27569
H    -2.29911  -1.96148  -0.11098
H    -2.14018  -1.44487   1.57198
H    -3.75800  -1.53175   0.82332
H    -1.19833   1.73500  -0.42605
H    -0.11157  -1.04609   0.33097
H     1.21180   1.61351  -0.62372
H     1.67919  -1.99395   0.47400
H     3.28018  -1.52379   1.10263
H     3.12181  -2.05460  -0.57258
H     4.38292   0.69044   0.30120
H     4.22749   0.15993  -1.37479
H     3.50012   1.71423  -0.87019
