22
Generated by autodE on: 2022-07-27. E = -662.386003 Ha
C    -0.21876   3.44472   1.50937
N    -0.49355   2.07938   1.11792
C     0.34098   1.35063   0.34591
O     1.41554   1.80734  -0.09075
C    -0.05558  -0.03359   0.02150
N     0.74428  -0.80317  -0.75536
C     1.90497  -0.60073  -1.35452
C     2.48518  -1.63951  -2.11143
N     2.99670  -2.47472  -2.74699
C    -1.25285  -0.77775   0.42014
O    -1.45507  -1.93677   0.06987
O    -2.10888  -0.09972   1.19341
C    -3.30117  -0.78461   1.60809
H    -0.99329   4.13006   1.12854
H     0.75111   3.74962   1.10054
H    -0.18621   3.54111   2.60652
H    -1.35033   1.63656   1.43543
H     0.31631  -1.73585  -0.87886
H     2.39376   0.36512  -1.25383
H    -3.04434  -1.67858   2.19354
H    -3.85471  -0.06951   2.22681
H    -3.89857  -1.07552   0.73257
