33
Generated by autodE on: 2022-10-21. E = -3433.995395 Ha
C    -2.13590  -2.28319   0.41037
O    -1.24927  -1.21477   0.71880
C    -0.88358  -0.38608  -0.33419
C    -2.03016   0.43147  -0.98498
C    -2.79679   1.11459   0.17050
C    -1.82779   2.25191   0.61267
C    -0.59268   2.04989  -0.29594
C    -1.30358   1.64160  -1.60609
C     0.13330   0.74641   0.11189
Br    0.61344   0.72747   2.02214
C     1.41538   0.37090  -0.70754
C     2.47290   1.40953  -0.92867
O     0.84183  -0.12652  -1.94236
C     0.05182  -1.13153  -1.36797
C    -0.58584  -1.95955  -2.38736
N    -1.12220  -2.59395  -3.19373
O     0.99372  -1.90650  -0.59681
C     1.91534  -0.98606  -0.16161
O     2.89120  -1.27811   0.46346
H    -3.01189  -1.94389  -0.16494
H    -1.62474  -3.08555  -0.14858
H    -2.47728  -2.69303   1.37050
H    -2.65669  -0.16122  -1.66319
H    -3.02627   0.41724   0.98545
H    -3.74610   1.51854  -0.20718
H    -2.25400   3.24302   0.40285
H    -1.58348   2.21601   1.68074
H     0.07803   2.91597  -0.34205
H    -2.01923   2.41479  -1.92081
H    -0.64368   1.41103  -2.44489
H     2.05055   2.29105  -1.42830
H     2.89009   1.71330   0.04142
H     3.28334   0.99630  -1.54481
