33
Generated by autodE on: 2022-10-21. E = -3433.921150 Ha. Imaginary frequency = -233.1 cm-1
C    -2.17966  -2.33744   0.39969
O    -1.23619  -1.34346   0.80183
C    -1.08428  -0.26397   0.02478
C    -2.18303   0.37803  -0.81069
C    -2.99063   1.23139   0.22439
C    -2.00582   2.38621   0.57166
C    -0.73340   2.02951  -0.26345
C    -1.40509   1.48557  -1.54173
C    -0.18077   0.75043   0.35192
Br    0.62086   0.84709   2.08330
C     1.84625   0.12212  -1.01122
C     2.68679   1.33196  -1.03674
O     1.04236  -0.18422  -2.04298
C     0.37048  -1.29928  -1.71001
C    -0.41391  -1.95983  -2.67286
N    -1.13944  -2.46739  -3.43318
O     1.04858  -1.95962  -0.74679
C     2.00460  -1.06900  -0.21565
O     2.72299  -1.37165   0.70974
H    -3.20297  -1.93277   0.39125
H    -1.93452  -2.73729  -0.59549
H    -2.11187  -3.14226   1.14206
H    -2.78092  -0.30691  -1.42255
H    -3.28055   0.63630   1.10195
H    -3.90943   1.60805  -0.24781
H    -2.39691   3.36039   0.24353
H    -1.78408   2.45453   1.64517
H    -0.01080   2.84661  -0.37826
H    -2.08116   2.22699  -1.99137
H    -0.71105   1.12774  -2.30596
H     2.14830   2.16761  -1.50434
H     2.95313   1.60221  -0.00483
H     3.62319   1.15685  -1.59448
