43
Generated by autodE on: 2022-06-21. E = -1046.792040 Ha
C     0.22196   2.95259  -1.26203
N    -0.75191   1.87737  -1.14615
C    -1.55624   1.59180  -2.24496
C    -2.26062   0.45454  -2.38813
C    -2.18762  -0.66975  -1.39679
C    -1.55474  -0.21836  -0.05302
C    -2.66037   0.27501   0.87657
N    -2.99077   1.56511   0.75468
O    -3.21774  -0.51211   1.64926
C    -0.39238   0.77521  -0.28297
C     0.76933  -0.13159  -0.76984
C     2.14386   0.38928  -0.40725
C     3.10392   0.55703  -1.41438
C     4.38137   1.03947  -1.11464
C     4.71740   1.35353   0.20516
C     3.76925   1.18141   1.21975
C     2.49237   0.70394   0.91607
N     0.44247  -1.46170  -0.19819
C     1.49551  -2.35896   0.23431
C    -0.76488  -1.39919   0.59777
C    -0.47632  -1.12510   2.03908
N    -0.11393  -0.90593   3.11901
C    -1.51513  -2.67412   0.53721
N    -2.06337  -3.69268   0.46927
H    -0.25911   3.83861  -1.70125
H     0.59414   3.21901  -0.26234
H     1.08891   2.67976  -1.88985
H    -1.62849   2.40134  -2.97567
H    -2.91771   0.34182  -3.25209
H    -3.18850  -1.08413  -1.19768
H    -1.59576  -1.50356  -1.80830
H    -3.74254   1.94332   1.32358
H    -2.46322   2.17394   0.13087
H    -0.11150   1.20187   0.69150
H     0.71850  -0.20168  -1.86862
H     2.84194   0.30975  -2.44628
H     5.11525   1.16853  -1.91376
H     5.71505   1.72947   0.44422
H     4.02534   1.42071   2.25464
H     1.76620   0.57164   1.72019
H     1.07987  -3.36789   0.38082
H     2.26151  -2.42224  -0.55026
H     1.99006  -2.04768   1.17308
