20
Generated by autodE on: 2022-06-21. E = -457.715331 Ha
C    -3.09855   0.09542  -0.70121
N    -1.81315  -0.23296  -0.10679
C    -1.71367  -1.32747   0.76132
C    -0.54636  -1.73219   1.28629
C     0.76845  -1.05084   0.99698
C     0.56673   0.10281   0.02762
C     1.69993   0.92308  -0.43023
N     2.91631   0.58902   0.06967
O     1.58397   1.87404  -1.23014
C    -0.66943   0.42379  -0.44864
H    -3.86522   0.22049   0.07914
H    -3.43615  -0.69346  -1.39453
H    -3.01138   1.03676  -1.25804
H    -2.65907  -1.82735   0.97997
H    -0.54999  -2.59262   1.95936
H     1.22995  -0.69797   1.94243
H     1.49573  -1.78475   0.59330
H     3.72490   1.12900  -0.21819
H     3.04852  -0.17097   0.72451
H    -0.78649   1.25493  -1.14582
