23
Generated by autodE on: 2022-07-27. E = -589.048287 Ha
C    -1.66847  -1.68226  -2.06586
N    -0.84449  -0.98057  -1.06352
C    -0.27920   0.15733  -1.40091
C     0.37525   1.14869  -0.56964
C     1.24878   2.04169  -1.23175
C     1.86866   3.07695  -0.53817
C     1.60189   3.26336   0.82296
C     0.71226   2.40818   1.48313
C     0.11242   1.35012   0.80455
C    -0.68496  -1.64943   0.16861
C     0.51835  -1.55487   0.88056
N     1.52170  -1.47642   1.47964
C    -1.68127  -2.53302   0.61514
N    -2.49913  -3.27414   1.00810
H    -1.26112  -2.68799  -2.23168
H    -2.69645  -1.76422  -1.68759
H    -1.67400  -1.10683  -2.99714
H    -0.32836   0.38201  -2.46801
H     1.43618   1.90750  -2.29954
H     2.55331   3.74811  -1.06101
H     2.08122   4.07968   1.36797
H     0.48806   2.56308   2.54066
H    -0.58715   0.70537   1.33476
