56
Generated by autodE on: 2022-06-14. E = -1909.840524 Ha
C    -7.15932  -0.57134   6.59676
C    -5.67272  -0.58989   6.52626
O    -4.95321  -1.41165   7.04533
C    -4.94531   0.65470   5.87508
C    -5.84861   1.59875   5.19186
N    -6.53409   2.40489   4.72011
O    -4.41879   1.37300   6.99393
C    -3.00817   1.33152   6.98671
C    -2.57142   0.47504   8.12464
N    -2.33409  -0.21315   9.02538
C    -2.53200   2.72132   7.19507
N    -2.23974   3.83002   7.35589
C    -2.62187   0.71348   5.62751
C    -3.73927   0.27843   5.01271
C    -3.94129  -0.43618   3.66753
C    -2.98826  -1.63991   3.54980
C    -2.61350  -2.37880   4.68379
C    -1.83650  -3.53248   4.56439
C    -1.40997  -3.96467   3.30758
C    -1.78391  -3.24066   2.17139
C    -2.57391  -2.09610   2.29108
C    -5.39342  -1.01519   3.55876
C    -6.42173  -0.32650   2.89101
C    -7.70774  -0.86369   2.78599
C    -8.00307  -2.11128   3.33783
C    -6.99259  -2.81573   3.99497
C    -5.70964  -2.27629   4.09788
C    -3.74644   0.60158   2.51559
C    -2.38759   1.27662   2.30259
C    -2.06995   2.42944   3.27748
C    -0.99997   2.17479   4.33784
C    -1.18412   0.86032   5.14963
Cl   -0.05292   0.98792   6.62328
C    -0.55268  -0.24190   4.41067
N     0.16203  -0.95931   3.84601
H    -7.60149  -0.44564   5.59798
H    -7.45818   0.30887   7.19307
H    -7.52624  -1.48940   7.07023
H    -2.93697  -2.06070   5.67512
H    -1.55903  -4.08955   5.46225
H    -0.79249  -4.86078   3.21134
H    -1.46051  -3.56943   1.18083
H    -2.86147  -1.55968   1.38722
H    -6.24317   0.64807   2.44564
H    -8.48104  -0.29569   2.26388
H    -9.00820  -2.53054   3.25391
H    -7.19735  -3.79518   4.43281
H    -4.94744  -2.85654   4.61186
H    -4.04222   0.09572   1.58708
H    -4.47809   1.40631   2.66165
H    -2.42956   1.69579   1.28620
H    -1.57220   0.53973   2.26856
H    -2.99694   2.75780   3.77370
H    -1.71371   3.30128   2.70820
H    -1.00014   3.00804   5.05167
H     0.00402   2.13029   3.89170
