15
Generated by autodE on: 2022-07-27. E = -583.357466 Ha
C    -2.95096  -1.20069  -0.29446
C    -1.50403  -0.95803   0.00221
O    -0.81400  -1.68005   0.71058
C    -0.85469   0.18537  -0.66720
C    -1.45588   0.88274  -1.74566
N    -1.99078   1.44927  -2.61158
O     0.39800   0.51149  -0.46280
C     1.30612   0.24724   0.44237
C     1.08941  -0.32505   1.71839
N     1.04466  -0.67851   2.82841
C     2.59165   0.77245   0.14709
N     3.66106   1.17473  -0.07783
H    -3.08700  -1.41361  -1.36752
H    -3.54225  -0.30067  -0.06121
H    -3.30395  -2.05364   0.29786
