41
Generated by autodE on: 2022-06-14. E = -1326.364886 Ha
N    -3.38145  -3.50688  -1.40039
C    -2.32818  -3.02763  -1.47549
C    -1.00968  -2.39610  -1.59601
Cl    0.19826  -3.80678  -1.71132
C    -0.65988  -1.55799  -0.46336
C    -0.17427  -0.57684   0.05610
C     0.50613   0.70276   0.25124
C    -0.49895   1.85264   0.46272
C    -0.00615   3.14397   0.70916
C    -0.87893   4.21912   0.88007
C    -2.26313   4.02107   0.81238
C    -2.76106   2.73952   0.57118
C    -1.88397   1.66238   0.39605
C     1.45015   0.63502   1.46244
C     0.96017   0.10879   2.66797
C     1.76298   0.06500   3.80829
C     3.07457   0.55134   3.76128
C     3.56927   1.07770   2.56633
C     2.76349   1.11863   1.42209
C     1.26272   0.90351  -1.10884
C     0.41859   0.71252  -2.38600
C     0.36659  -0.70217  -3.02917
C    -0.91925  -1.53476  -2.88415
H     1.07107   3.31047   0.77310
H    -0.47621   5.21687   1.07045
H    -2.94716   4.86191   0.94902
H    -3.83914   2.56980   0.51724
H    -2.28672   0.66653   0.20628
H    -0.06526  -0.26712   2.71133
H     1.36406  -0.35047   4.73680
H     3.70619   0.51885   4.65212
H     4.59164   1.46019   2.51745
H     3.17154   1.53729   0.50238
H     1.67686   1.92162  -1.10081
H     2.11768   0.21036  -1.12877
H    -0.60455   1.08989  -2.22127
H     0.85680   1.38407  -3.13951
H     1.22917  -1.30365  -2.69866
H     0.50089  -0.57137  -4.11341
H    -1.80116  -0.87364  -2.87716
H    -1.03290  -2.22076  -3.73646
