56
Generated by autodE on: 2022-06-14. E = -1909.719220 Ha. Imaginary frequency = -226.2 cm-1
C    -7.40579  -0.15369   6.42152
C    -5.95988   0.08912   6.72363
O    -5.33516  -0.50055   7.58584
C    -5.31474   1.23112   6.00002
C    -6.02249   1.92883   4.97503
N    -6.59598   2.47607   4.12372
O    -4.40712   2.00021   6.56440
C    -3.35890   1.78279   7.32513
C    -3.16786   0.76155   8.30737
N    -2.82524   0.05739   9.16787
C    -2.59396   2.97909   7.51168
N    -1.99838   3.96668   7.65721
C    -2.38919   0.37061   5.55172
C    -3.33087  -0.07881   4.88929
C    -3.85796  -0.63227   3.61367
C    -2.96229  -1.83036   3.19425
C    -2.34795  -2.65349   4.14776
C    -1.61455  -3.77769   3.76077
C    -1.47713  -4.09766   2.40838
C    -2.08708  -3.28425   1.44914
C    -2.82629  -2.16425   1.83844
C    -5.28853  -1.19356   3.69523
C    -6.30133  -0.79395   2.81535
C    -7.55728  -1.41211   2.84926
C    -7.81570  -2.44185   3.75562
C    -6.81288  -2.83857   4.64679
C    -5.56569  -2.21668   4.61841
C    -3.71716   0.55793   2.61269
C    -2.32332   1.21209   2.53879
C    -2.05152   2.33694   3.57443
C    -0.91765   2.14029   4.59132
C    -0.99107   0.81838   5.42012
Cl   -0.12056   1.05036   7.03709
C    -0.19572  -0.23404   4.76772
N     0.47383  -1.02282   4.24470
H    -7.61039  -0.17003   5.34324
H    -7.98139   0.68515   6.85113
H    -7.72377  -1.09293   6.88726
H    -2.42941  -2.41348   5.20814
H    -1.14095  -4.39919   4.52432
H    -0.89895  -4.97289   2.10317
H    -1.99171  -3.52138   0.38678
H    -3.30483  -1.55763   1.06981
H    -6.12694  -0.00079   2.09040
H    -8.33461  -1.08420   2.15515
H    -8.79419  -2.92692   3.77473
H    -7.00459  -3.63178   5.37282
H    -4.79397  -2.53581   5.32018
H    -4.00017   0.19253   1.61779
H    -4.46068   1.32120   2.87692
H    -2.23264   1.64627   1.53248
H    -1.54486   0.43394   2.58180
H    -2.97704   2.56071   4.12605
H    -1.79978   3.26529   3.03860
H    -0.94363   2.97343   5.30498
H     0.06967   2.16152   4.10716
