51
Generated by autodE on: 2022-06-25. E = -1109.704954 Ha
C     2.79919   2.81300   2.37378
N     2.26883   1.70071   1.60949
C     0.99511   1.67209   1.18176
O     0.20400   2.58863   1.43589
C     0.57338   0.36604   0.44992
C     1.66995  -0.06700  -0.52177
C     2.13358   0.83846  -1.49151
C     3.11221   0.45997  -2.41143
C     3.65240  -0.83117  -2.37349
C     3.21213  -1.73124  -1.40041
C     2.22865  -1.34871  -0.48118
N     0.27687  -0.65889   1.46329
C    -1.16720  -0.96460   1.55180
C    -1.87886  -0.04848   2.56474
C    -1.34553  -2.41486   2.00723
C    -1.62311  -0.68656   0.07828
C    -3.12217  -0.36218  -0.01628
N    -3.97542  -1.39899   0.07593
O    -3.53367   0.79529  -0.15224
C    -1.23700  -1.82543  -0.89385
C    -1.22646  -1.32931  -2.31154
C    -1.03380  -0.02283  -2.59264
N    -0.79870   0.94742  -1.64533
C    -0.98865   2.34499  -1.97272
C    -0.81401   0.58631  -0.25020
H     3.83198   2.58484   2.66416
H     2.79386   3.74471   1.78478
H     2.20318   2.98450   3.28330
H     2.89688   0.96158   1.31089
H     1.73524   1.85395  -1.52057
H     3.45822   1.17666  -3.16035
H     4.41866  -1.12827  -3.09368
H     3.63460  -2.73812  -1.35309
H     1.88084  -2.04348   0.28275
H     0.66410  -0.43538   2.37692
H    -1.79051   1.01404   2.30432
H    -2.94623  -0.30017   2.65570
H    -1.41872  -0.18881   3.55577
H    -2.40949  -2.69052   2.06030
H    -0.82878  -3.12004   1.34358
H    -0.92344  -2.53289   3.01770
H    -3.66260  -2.35195   0.21207
H    -4.97321  -1.21299   0.05004
H    -0.24928  -2.21523  -0.60322
H    -1.92333  -2.67814  -0.79033
H    -1.35766  -2.03663  -3.13245
H    -1.04162   0.34297  -3.62351
H    -0.72782   2.52006  -3.02676
H    -0.33489   2.97438  -1.35046
H    -2.03267   2.67689  -1.81224
H    -1.27925   1.41546   0.28703
