31
Generated by autodE on: 2022-07-27. E = -651.946370 Ha
C    -0.38630   3.71694   2.04961
N    -0.62818   2.34257   1.65894
C     0.20538   1.73569   0.73135
O     1.20666   2.36092   0.30998
C    -0.12881   0.38487   0.35004
N    -1.07257  -0.25750   1.16099
C    -1.97748  -1.16609   0.86964
C    -2.73730  -1.79758   1.98363
C    -2.23119  -1.56916  -0.53292
C     0.63798  -0.36835  -0.63806
C     1.19868   0.26259  -1.77665
C     1.96558  -0.44864  -2.69765
C     2.19913  -1.82005  -2.53203
C     1.65019  -2.46406  -1.41858
C     0.88637  -1.75528  -0.48963
H    -1.09034   3.99108   2.84693
H    -0.51080   4.42949   1.21366
H     0.63662   3.83561   2.43453
H    -1.59895   2.04890   1.67393
H    -1.07126   0.03789   2.14274
H    -2.53264  -1.30867   2.94772
H    -3.81866  -1.76585   1.77461
H    -2.46262  -2.86412   2.07210
H    -3.25394  -1.95860  -0.63166
H    -2.07761  -0.71726  -1.21431
H    -1.53337  -2.36236  -0.85904
H     1.02137   1.32614  -1.93310
H     2.37838   0.07368  -3.56523
H     2.79590  -2.37561  -3.25910
H     1.82390  -3.53232  -1.26300
H     0.49542  -2.28296   0.38298
