31
Generated by autodE on: 2022-06-25. E = -651.950446 Ha
C     0.67138   3.95287   0.65436
N     0.61775   2.50757   0.63628
C    -0.52426   1.84663   0.28409
O    -1.58895   2.49925   0.09742
C    -0.49283   0.40999   0.10692
N    -1.71244  -0.04781  -0.37178
C    -2.27977  -1.22797  -0.45198
C    -3.61456  -1.32531  -1.11266
C    -1.64790  -2.44998   0.11153
C     0.71925  -0.41297   0.07545
C     0.99028  -1.27440  -1.01515
C     2.16350  -2.02613  -1.07170
C     3.11788  -1.93617  -0.05138
C     2.87426  -1.08411   1.03072
C     1.69322  -0.34253   1.09901
H     0.57449   4.39846  -0.35266
H     1.63342   4.26860   1.07952
H    -0.13546   4.36680   1.27743
H     1.49344   1.99811   0.61896
H    -2.29885   0.75716  -0.63513
H    -4.34782  -1.79768  -0.43721
H    -3.55397  -1.96770  -2.00943
H    -3.99121  -0.33921  -1.42145
H    -1.08135  -2.21792   1.02626
H    -0.93650  -2.91588  -0.59405
H    -2.42491  -3.19365   0.33935
H     0.27627  -1.33580  -1.83893
H     2.34131  -2.67949  -1.92997
H     4.03767  -2.52352  -0.09920
H     3.60303  -1.00743   1.84193
H     1.50723   0.28422   1.97327
