27
Generated by autodE on: 2022-06-17. E = -815.038858 Ha
C     3.63005   0.34872   0.68973
O     2.49747  -0.51253   0.50002
C     1.50991  -0.02227  -0.24469
O     1.52205   1.08305  -0.76346
N     0.48072  -0.92838  -0.43300
C    -0.85725  -0.44569  -0.82460
C    -0.91467   0.83570  -1.65107
O    -0.70639   0.80373  -2.85213
C    -1.34455   2.07986  -0.97606
C    -1.65320   2.13083   0.33300
C    -1.52097   0.94641   1.20571
O    -1.37718   1.05791   2.41323
C    -1.57024  -0.41952   0.53996
N    -0.87204  -1.44596   1.33701
N     0.25741  -1.90705   0.56901
C    -0.01812  -3.21162  -0.02736
H     4.32566  -0.21083   1.32566
H     3.32699   1.28077   1.18776
H     4.10251   0.58286  -0.27498
H    -1.30727  -1.21579  -1.46426
H    -1.38384   2.97005  -1.60904
H    -1.92604   3.06907   0.82293
H    -2.64047  -0.65375   0.40986
H    -0.50187  -0.97835   2.16750
H    -0.17817  -3.93066   0.78643
H     0.86102  -3.52462  -0.60685
H    -0.90905  -3.22029  -0.68177
