15
Generated by autodE on: 2022-07-27. E = -433.376976 Ha
C     1.48186   2.65665  -0.36348
O     1.08714   1.36402  -0.83247
C     0.31482   0.63798  -0.00615
O    -0.03769   1.05831   1.09778
N     0.02842  -0.56184  -0.60003
N    -0.73070  -1.40989   0.08297
C    -0.96611  -2.66199  -0.66317
N    -1.26087  -1.31773   1.22245
H     2.07171   2.57425   0.56164
H     0.60227   3.29058  -0.17644
H     2.09513   3.09231  -1.16136
H    -1.58944  -3.31550  -0.04680
H     0.00719  -3.12101  -0.87564
H    -1.46406  -2.40816  -1.60702
H    -0.99769  -0.39013   1.59889
