15
Generated by autodE on: 2022-06-17. E = -433.370869 Ha
C     2.73757  -0.27684   0.05710
O     1.30811  -0.36634   0.14771
C     0.59640   0.67490  -0.34049
O     1.14170   1.64836  -0.83811
N    -0.77277   0.60750  -0.24654
N    -1.40204  -0.44527   0.25082
C    -2.86658  -0.23507   0.26032
N    -1.00223  -1.55713   0.69401
H     3.12377  -1.20247   0.49949
H     3.10312   0.59511   0.61771
H     3.05096  -0.19654  -0.99341
H    -3.07876   0.65474   0.86509
H    -3.19196  -0.06111  -0.77239
H    -3.33875  -1.12632   0.68214
H     0.02473  -1.57166   0.63150
