38
Generated by autodE on: 2022-06-19. E = -1009.297570 Ha
C     4.28608   0.17760  -0.73144
O     3.14267   0.03878   0.12781
C     1.96716   0.37891  -0.38277
O     1.79558   0.90410  -1.45616
C     0.81005   0.10779   0.62382
C     1.35347   0.27061   1.99749
N     1.72617   0.43697   3.08338
C     0.17625  -1.32224   0.47041
C     0.60192  -2.10828  -0.75137
O     1.67405  -1.99161  -1.30488
C    -1.35514  -1.09260   0.65745
C    -2.27213  -2.13620   0.01511
C    -1.66676  -1.05266   2.16454
C    -1.51816   0.34216   0.03506
C    -2.69253   1.02950   0.59847
N    -3.61937   1.57301   1.03402
C    -1.59552   0.31302  -1.53257
C    -2.52639   1.25012  -2.22840
O    -0.84731  -0.43743  -2.12687
N    -0.30072   1.01772   0.44878
C    -0.09549   2.43781   0.23476
H     4.17303  -0.47841  -1.60637
H     4.39344   1.22097  -1.05901
H     5.15173  -0.12780  -0.13340
H     0.53216  -1.96894   1.29149
H    -0.09464  -2.92285  -1.03777
H    -3.31914  -1.85566   0.20722
H    -2.14192  -2.23715  -1.06785
H    -2.09947  -3.11900   0.47802
H    -1.37697  -2.01458   2.61152
H    -1.12493  -0.25456   2.68891
H    -2.74230  -0.90944   2.33770
H    -3.56687   0.96650  -1.99740
H    -2.35912   1.20989  -3.31186
H    -2.38553   2.27592  -1.85194
H     0.76525   2.76762   0.83523
H    -0.97537   2.99500   0.59035
H     0.09478   2.70484  -0.81771
