24
Generated by autodE on: 2022-06-19. E = -738.579213 Ha
C     3.40994   1.66171  -0.00332
O     2.51226   0.67343  -0.53818
C     1.47653   0.33674   0.22158
O     1.25005   0.78371   1.32498
C     0.69229  -0.76410  -0.41048
C     1.39186  -1.64767  -1.27045
N     2.00342  -2.33789  -1.98339
N    -0.57508  -1.02523  -0.05975
C    -1.11136  -2.39637  -0.20670
C    -1.42281  -0.06503   0.41575
C    -2.57674  -0.49524   1.11440
N    -3.52906  -0.81292   1.70820
C    -1.33011   1.33658  -0.02140
C    -2.47451   2.23645   0.36131
O    -0.39433   1.73773  -0.71022
H     2.86679   2.59813   0.18635
H     3.86276   1.29876   0.93009
H     4.17882   1.81184  -0.76899
H    -2.04835  -2.35823  -0.77366
H    -1.29337  -2.80204   0.79790
H    -0.38001  -3.02640  -0.71969
H    -2.55745   2.28661   1.45916
H    -2.29121   3.24004  -0.04138
H    -3.43109   1.84977  -0.02257
