38
Generated by autodE on: 2022-06-19. E = -1009.238098 Ha. Imaginary frequency = -369.3 cm-1
C     2.76203  -0.98935  -2.27575
O     1.92621  -0.79540  -1.12328
C     1.67837   0.45029  -0.77030
O     2.19827   1.43636  -1.24092
C     0.86347   0.57413   0.53471
C     1.82049   0.78823   1.59556
N     2.63279   0.87405   2.42150
C     0.01798  -1.24261   1.11802
C     1.12564  -2.20963   0.93088
O     2.02387  -2.33720   1.74764
C    -1.22693  -1.43190   0.44823
C    -1.28506  -2.22327  -0.82535
C    -2.48731  -1.40671   1.26159
C    -1.37411   0.99327  -0.19677
C    -2.64143   1.42622   0.27961
N    -3.70668   1.72211   0.64864
C    -1.30892   0.62961  -1.61108
C    -2.61380   0.47904  -2.34854
O    -0.23510   0.45330  -2.18854
N    -0.26490   1.36163   0.56986
C    -0.54430   2.07806   1.82647
H     2.27356  -0.55937  -3.16118
H     3.74131  -0.51627  -2.11933
H     2.87076  -2.07380  -2.38622
H    -0.06509  -0.92987   2.16412
H     1.08098  -2.86093   0.03570
H    -2.23706  -2.06612  -1.34865
H    -0.45428  -2.00168  -1.50572
H    -1.23713  -3.29848  -0.57239
H    -2.65666  -2.42879   1.65047
H    -2.42084  -0.72657   2.12098
H    -3.36951  -1.14836   0.65867
H    -3.36135  -0.07630  -1.76494
H    -2.42526  -0.02951  -3.30228
H    -3.03242   1.47927  -2.54981
H    -0.92202   1.38701   2.59618
H    -1.28688   2.85967   1.63726
H     0.37177   2.56120   2.18072
