19
Generated by autodE on: 2022-06-20. E = -681.040801 Ha
C     3.52323   1.61952   0.05969
O     2.13579   1.27040  -0.04625
C     1.80964   0.00698   0.25659
O     2.62310  -0.83318   0.60608
C     0.39013  -0.27884   0.13297
C    -0.19341  -1.55052   0.41008
O     0.20252  -2.63303   0.77317
O    -1.59515  -1.35100   0.15589
C    -1.77282  -0.08988  -0.22742
C    -3.05267   0.40569  -0.55514
N    -4.11462   0.79988  -0.82183
N    -0.62888   0.57760  -0.25503
C    -0.50888   1.98644  -0.64020
H     4.12893   1.00353  -0.62047
H     3.58852   2.67567  -0.22575
H     3.87744   1.48155   1.09137
H    -0.10196   2.55414   0.20364
H    -1.50319   2.36153  -0.90591
H     0.16747   2.06499  -1.49808
