39
Generated by autodE on: 2022-06-20. E = -1138.749353 Ha. Imaginary frequency = -441.5 cm-1
C    -5.07801   0.93161  -0.53139
O    -3.91591   0.22498  -0.08223
C    -2.89893   0.12094  -0.95607
O    -2.94834   0.59146  -2.08587
C    -1.74326  -0.57022  -0.42407
C    -0.56836  -0.84790  -1.18780
O    -0.21777  -0.64057  -2.33311
O     0.31228  -1.49347  -0.29174
C    -0.22460  -1.33362   0.96298
C     0.28754  -2.23250   1.96640
N     0.73904  -2.90726   2.79565
C     0.54429   0.45391   1.49963
C     2.05795   0.27611   1.45390
C     2.64049   0.73392   0.13441
C     4.04821   0.44754  -0.23522
N     4.79263  -0.18599   0.69914
O     4.52804   0.76565  -1.33624
C     1.91011   1.46667  -0.73483
N     0.60438   1.85695  -0.48243
C    -0.12089   2.62256  -1.49444
C    -0.05407   1.35426   0.59339
N    -1.58134  -1.15879   0.83602
C    -2.41456  -0.93730   2.00647
H    -5.52288   0.43285  -1.40476
H    -4.82364   1.96832  -0.79603
H    -5.78135   0.91814   0.30944
H     0.09989   0.46600   2.49849
H     2.52288   0.83447   2.28840
H     2.32159  -0.78003   1.63658
H     4.44093  -0.41574   1.62041
H     5.76721  -0.37908   0.49258
H     2.33286   1.81620  -1.67615
H     0.53139   3.40756  -1.89900
H    -0.44863   1.96319  -2.31019
H    -1.00093   3.08775  -1.03435
H    -1.04668   1.76345   0.77622
H    -3.43548  -1.27728   1.80858
H    -2.00036  -1.51519   2.84221
H    -2.43368   0.13048   2.27592
