14
Generated by autodE on: 2022-10-26. E = -361.968916 Ha
C    -1.27347  -2.04380   0.12403
N    -1.32675  -1.06336   0.99204
C    -0.70958   0.15287   1.11321
C     0.24841   0.70893   0.22618
O     0.78506   1.81343   0.37316
O     0.55434  -0.08455  -0.84539
C     1.51571   0.43238  -1.76426
H    -1.90687  -2.90950   0.31130
H    -0.61775  -1.97721  -0.73902
H    -1.97630  -1.23261   1.76478
H    -0.99888   0.73069   1.98685
H     1.16986   1.37626  -2.21280
H     1.63116  -0.32898  -2.54603
H     2.48374   0.60764  -1.27029
