14
Generated by autodE on: 2022-10-20. E = -361.971754 Ha
C     2.41796   0.99214  -0.47782
N     1.97812  -0.23563  -0.60264
C     0.75958  -0.81635  -0.37629
C    -0.35218  -0.07280   0.08402
O    -0.38697   1.14070   0.33259
O    -1.46451  -0.86052   0.24144
C    -2.64154  -0.20327   0.70082
H     1.74560   1.77095  -0.12911
H     3.45967   1.17979  -0.73365
H     2.67683  -0.90451  -0.93624
H     0.69759  -1.88269  -0.57259
H    -2.96343   0.58285  -0.00047
H    -3.41859  -0.97569   0.76781
H    -2.48752   0.25115   1.69240
