17
Generated by autodE on: 2022-10-20. E = -2995.673361 Ha
C     2.71010   0.34934   0.76268
O     1.64118   0.03028   1.65749
C     0.43280  -0.22100   1.15239
C    -0.15032  -0.25438  -0.06171
Br    0.43843   0.16606  -1.80056
C    -1.65020  -0.49772   0.24122
C    -2.20288   0.77440   0.92769
C    -1.61714   0.79467   2.12862
C    -0.72799  -0.46938   2.14796
O    -1.53534  -1.37500   1.37732
H     3.60194   0.48594   1.38683
H     2.88097  -0.47214   0.05074
H     2.49777   1.27934   0.21486
H    -2.24122  -0.93819  -0.56930
H    -2.87461   1.49667   0.46485
H    -1.67060   1.53710   2.92391
H    -0.43192  -0.87904   3.12000
