50
Generated by autodE on: 2022-06-25. E = -1411.787352 Ha
C    -2.61349   0.89660   2.51729
O    -1.56256   0.08559   1.97804
C    -0.99066   0.43609   0.75735
C    -2.09955   0.65742  -0.28623
O    -2.48559   1.78493  -0.54059
C    -2.73497  -0.54210  -0.87270
C    -4.04899  -0.34776  -1.55734
C    -2.09650  -1.74942  -0.87790
C    -2.69502  -2.94216  -1.55020
C    -0.75219  -1.91968  -0.28223
O    -0.17242  -2.99180  -0.27849
C    -0.03493  -0.71103   0.33476
O     0.81163  -1.07015   1.37305
C     0.36430  -1.94227   2.41746
C     0.90038   0.03706  -0.69573
C     0.26037   0.17438  -2.02519
N    -0.21806   0.32276  -3.07025
C     2.26402  -0.61688  -0.84541
C     3.32905  -0.18748  -0.04576
C     4.57209  -0.81442  -0.15313
C     4.75418  -1.87057  -1.05145
C     3.68810  -2.29824  -1.84805
C     2.44449  -1.67053  -1.74981
O     1.02720   1.34912  -0.14469
C     0.03169   1.64299   0.82285
C     0.65099   1.66747   2.16283
N     1.16050   1.73619   3.20148
C    -0.54774   3.07658   0.55064
C    -0.23414   3.68689  -0.77773
O    -1.10975   3.65636   1.45425
H    -3.51816   0.85416   1.89091
H    -2.29376   1.94095   2.63653
H    -2.83850   0.46539   3.50064
H    -4.44057   0.66265  -1.39356
H    -4.78315  -1.08675  -1.20052
H    -3.93759  -0.51054  -2.64294
H    -2.75652  -2.77027  -2.63845
H    -3.72411  -3.11268  -1.19833
H    -2.09483  -3.84125  -1.37072
H    -0.67879  -2.25319   2.29038
H     0.46005  -1.40925   3.37435
H     1.01141  -2.83182   2.42357
H     3.18332   0.63172   0.65786
H     5.40238  -0.47522   0.47025
H     5.72827  -2.35816  -1.13322
H     3.82336  -3.12033  -2.55406
H     1.61622  -2.00544  -2.37728
H    -0.38674   2.98139  -1.60376
H    -0.84718   4.58723  -0.91111
H     0.83273   3.96792  -0.77872
