24
Generated by autodE on: 2022-07-27. E = -722.273405 Ha
C    -2.66955   3.10163  -0.27643
C    -1.77250   1.89256  -0.37580
O    -1.51191   1.35638  -1.46470
C    -1.16774   1.42620   0.84165
C    -1.21264   2.11981   2.06397
N    -1.28562   2.69058   3.08174
O    -0.15067   0.50130   0.77422
C    -0.11715  -0.50262  -0.05118
C    -1.33312  -1.02860  -0.58939
N    -2.30588  -1.55418  -0.94913
C     1.14192  -1.15938  -0.27482
C     2.32805  -0.61676   0.27644
C     3.53880  -1.26502   0.07640
C     3.59017  -2.44535  -0.68004
C     2.42306  -2.98131  -1.23863
C     1.20226  -2.34741  -1.04161
H    -3.20680   3.22728  -1.22512
H    -3.38890   2.99372   0.54923
H    -2.06937   4.00473  -0.07990
H     2.28269   0.30927   0.84991
H     4.45350  -0.84892   0.50268
H     4.54769  -2.94585  -0.83977
H     2.46841  -3.89741  -1.83009
H     0.29297  -2.76657  -1.47561
