24
Generated by autodE on: 2022-06-25. E = -722.274623 Ha
C    -2.73663  -1.78883  -0.26332
C    -3.03452  -0.32557  -0.06457
O    -4.18301   0.12114  -0.01671
C    -1.90654   0.58116   0.07520
C    -2.10778   1.96341   0.25639
N    -2.33620   3.09992   0.39851
O    -0.69076   0.02726   0.01079
C     0.52857   0.45168   0.10239
C     0.80741   1.82740   0.36134
N     1.09886   2.93252   0.57880
C     1.59599  -0.51014  -0.06436
C     2.94449  -0.09855   0.02511
C     3.96716  -1.02730  -0.14359
C     3.66384  -2.36883  -0.40070
C     2.32700  -2.78339  -0.48930
C     1.29571  -1.86730  -0.32442
H    -2.14126  -1.94101  -1.17702
H    -2.14855  -2.18266   0.58003
H    -3.68442  -2.33582  -0.34299
H     3.18729   0.94649   0.22555
H     5.00723  -0.70302  -0.07449
H     4.46915  -3.09455  -0.53302
H     2.09178  -3.83049  -0.69006
H     0.25618  -2.18744  -0.39543
