25
Generated by autodE on: 2022-07-27. E = -701.703587 Ha
C     2.24808   2.81681  -0.10845
N     1.79549   1.57993  -0.71272
C     1.09794   0.66590  -0.00410
O     0.74046   0.88137   1.16421
C     0.83894  -0.62234  -0.68469
C     1.64737  -1.01709  -1.76643
N     2.33067  -1.29428  -2.67567
N     0.00599  -1.55959  -0.12071
C     0.32317  -2.98453  -0.35990
C    -1.03344  -1.28560   0.64689
C    -1.74576  -0.00388   0.65076
O    -1.72021   0.83816  -0.22967
O    -2.53510   0.07804   1.73061
C    -3.36293   1.24496   1.82994
H     1.41472   3.32537   0.39816
H     3.04419   2.64628   0.63587
H     2.63895   3.47338  -0.89538
H     2.10913   1.35308  -1.65077
H     0.17302  -3.20420  -1.42540
H     1.36808  -3.17492  -0.08670
H    -0.35265  -3.60584   0.23553
H    -1.46379  -2.10752   1.21644
H    -3.90634   1.15045   2.77703
H    -2.74400   2.15392   1.83428
H    -4.07025   1.28942   0.98879
