25
Generated by autodE on: 2022-06-17. E = -701.702411 Ha
C    -3.98457   1.58144  -0.95963
N    -3.18317   0.44466  -0.55518
C    -1.84341   0.55807  -0.39599
O    -1.26979   1.64177  -0.60658
C    -1.13841  -0.66719   0.03668
C    -1.89706  -1.83533   0.26004
N    -2.58429  -2.76701   0.42592
N     0.22197  -0.74024   0.24400
C     0.71971  -2.06129   0.70552
C     1.05720   0.27059   0.05377
C     2.50648   0.27347   0.25462
O     3.24789  -0.61875   0.63935
O     2.96535   1.49881  -0.06839
C     4.37618   1.70760   0.05705
H    -3.91278   2.40590  -0.23184
H    -5.03219   1.26476  -1.03011
H    -3.66615   1.97015  -1.94017
H    -3.64670  -0.43910  -0.37690
H     1.79749  -2.00799   0.85226
H     0.21732  -2.31286   1.64712
H     0.47489  -2.81109  -0.05634
H     0.60567   1.19628  -0.28867
H     4.92953   1.01957  -0.59923
H     4.55556   2.74567  -0.24615
H     4.69998   1.55493   1.09725
