20
Generated by autodE on: 2022-06-05. E = -3089.224449 Ha
C     3.76041  -0.21257  -0.96022
N     2.43760   0.04085  -0.42300
C     1.44943   0.53903  -1.19092
O     1.61629   0.83471  -2.38416
C     0.12243   0.73185  -0.57552
C    -0.55989   0.13596   0.41641
Br   -0.06690  -1.22345   1.60450
C    -2.01511   0.65999   0.31052
C    -2.60315   0.04868  -0.98286
C    -1.93873   0.65184  -1.97242
C    -0.95564   1.61065  -1.26572
O    -1.73992   1.99733  -0.12164
H     4.39668  -0.60985  -0.16044
H     4.21512   0.71177  -1.35039
H     3.72367  -0.94438  -1.78278
H     2.25411  -0.17210   0.55073
H    -2.61982   0.62177   1.22244
H    -3.35238  -0.74115  -1.01573
H    -1.99130   0.49585  -3.04905
H    -0.58092   2.46943  -1.83059
