30
Generated by autodE on: 2022-07-27. E = -726.007846 Ha
C     1.12499   1.22673  -3.78013
N     1.04443   0.75910  -2.41288
C    -0.12730   0.54545  -1.76330
O    -1.23813   0.77067  -2.28983
C    -0.01996   0.05979  -0.36591
N    -1.07856   0.17353   0.43515
C    -2.32410   0.67110   0.33231
C    -3.11336   0.57150   1.52755
C    -4.50911   1.14093   1.48256
O    -2.65885   0.03836   2.56224
C     1.20298  -0.51909   0.22055
C     1.99070  -1.44433  -0.49639
C     3.12487  -2.01335   0.08328
C     3.49370  -1.68207   1.39123
C     2.71804  -0.77190   2.11602
C     1.58906  -0.19119   1.53733
H     1.57908   2.22971  -3.83284
H     1.73199   0.54125  -4.39225
H     0.11426   1.27750  -4.20070
H     1.91262   0.60402  -1.91262
H    -0.94531  -0.19898   1.39004
H    -2.66465   1.11163  -0.59699
H    -5.01216   0.98085   2.44540
H    -4.47474   2.22031   1.26127
H    -5.09220   0.66550   0.67720
H     1.69860  -1.73761  -1.50581
H     3.71667  -2.73265  -0.48759
H     4.38146  -2.13047   1.84280
H     3.00081  -0.49980   3.13557
H     1.01210   0.54174   2.10638
