26
Generated by autodE on: 2022-06-16. E = -780.804451 Ha
C    -2.15490   2.88310  -0.11520
O    -1.07731   1.93937  -0.24604
C    -1.06658   0.91545   0.59995
O    -1.89445   0.72608   1.46131
C     0.11607  -0.01916   0.29547
C     1.40287   0.81108   0.29849
O     1.63699   1.61922   1.17301
O     2.21892   0.51529  -0.70050
C     3.47674   1.21467  -0.73535
C     0.23567  -1.19166   1.28371
C     0.70998  -2.32953   0.38123
C    -0.03714  -2.02152  -0.92203
C    -1.39879  -2.59412  -0.94070
N    -2.47380  -3.02997  -0.95007
O    -0.12597  -0.59637  -0.99153
H    -2.13774   3.34124   0.88372
H    -3.11965   2.38134  -0.27579
H    -1.98566   3.64187  -0.88714
H     3.30477   2.29666  -0.82251
H     4.05311   1.00378   0.17637
H     4.00448   0.83836  -1.61857
H     0.91975  -0.96820   2.11156
H    -0.75937  -1.40061   1.70007
H     1.78898  -2.26066   0.18659
H     0.48085  -3.32681   0.77773
H     0.49300  -2.38174  -1.81603
