34
Generated by autodE on: 2022-10-22. E = -770.110055 Ha
C     2.79538  -1.44034  -0.50825
O     2.62939  -0.38664   0.44443
C     1.57273   0.44979   0.35667
O     1.91250   1.73009   0.61697
C     3.14494   2.21207   0.07016
C     0.27740   0.10600   0.10885
C    -0.73275   1.15442  -0.19156
C    -0.45724   2.22195  -1.06940
C    -1.42171   3.19104  -1.34890
C    -2.69231   3.11443  -0.76689
C    -2.98588   2.05431   0.09624
C    -2.01893   1.08635   0.37811
C    -0.18492  -1.30166   0.20263
C    -1.07288  -1.82899  -0.75499
C    -1.52705  -3.14568  -0.66679
C    -1.10818  -3.96809   0.38536
C    -0.23373  -3.45631   1.34912
C     0.21822  -2.13751   1.26117
H     3.87565  -1.53675  -0.68602
H     2.28440  -1.19494  -1.45057
H     2.40290  -2.39018  -0.11851
H     3.15401   3.29442   0.25137
H     3.19339   2.02073  -1.01391
H     4.01190   1.74953   0.56339
H     0.52349   2.28444  -1.54474
H    -1.18298   4.00718  -2.03567
H    -3.44812   3.87139  -0.98938
H    -3.97428   1.98031   0.55692
H    -2.26036   0.26489   1.05602
H    -1.40489  -1.19612  -1.58093
H    -2.21035  -3.53415  -1.42618
H    -1.46448  -4.99854   0.45538
H     0.09343  -4.08493   2.18112
H     0.89489  -1.74522   2.02332
