50
Generated by autodE on: 2022-10-22. E = -1208.282641 Ha. Imaginary frequency = -464.5 cm-1
C    -2.16055  -2.96803  -0.89629
O    -0.93485  -2.24037  -0.83893
C    -0.98999  -0.88576  -0.69666
O    -2.05750  -0.28856  -1.30163
C    -1.95392  -0.20700  -2.73552
C    -1.97874  -0.80489   1.56615
C    -3.27632  -0.19102   1.32706
C    -3.41066   1.29980   1.51467
O    -4.23299  -0.87874   0.95421
N    -0.96059  -0.07779   2.05082
C     0.11424   0.34365   1.69200
C     1.20348   1.17813   2.24790
C     0.83423   2.61376   2.47253
O     2.30979   0.70529   2.44098
C     0.23907  -0.22675  -0.44741
C     0.47226   1.20819  -0.81002
C    -0.57288   2.14919  -0.94036
C    -0.30769   3.49659  -1.19045
C     1.00657   3.95878  -1.30731
C     2.05388   3.04611  -1.16004
C     1.79222   1.69694  -0.91366
C     1.42436  -1.16052  -0.45137
C     2.10604  -1.36154  -1.66537
C     3.17503  -2.25504  -1.75153
C     3.57586  -2.98083  -0.62453
C     2.89452  -2.80475   0.58217
C     1.82772  -1.90451   0.66568
H    -2.82155  -2.70468  -0.05838
H    -2.69738  -2.78809  -1.83999
H    -1.88393  -4.02828  -0.83485
H    -1.80592  -1.20459  -3.17535
H    -2.90093   0.21715  -3.09226
H    -1.11867   0.44699  -3.02839
H    -1.93717  -1.87929   1.76161
H    -4.23484   1.67382   0.89250
H    -2.48249   1.83851   1.28072
H    -3.65244   1.50181   2.57245
H    -0.00755   2.67140   3.18134
H     1.70389   3.16125   2.85880
H     0.49162   3.05861   1.52444
H    -1.60447   1.82827  -0.82644
H    -1.14425   4.19354  -1.28508
H     1.21060   5.01451  -1.49954
H     3.09079   3.38375  -1.23172
H     2.63222   1.01706  -0.77911
H     1.79072  -0.80659  -2.55195
H     3.69291  -2.38989  -2.70433
H     4.41149  -3.68182  -0.68873
H     3.19219  -3.37078   1.46817
H     1.30276  -1.79007   1.61482
