29
Generated by autodE on: 2022-10-07. E = -857.973482 Ha
C     3.10940   2.86429   1.25655
O     2.18578   1.89894   0.74033
C     2.61790   1.15349  -0.29532
O     3.73001   1.27686  -0.79731
C     1.64291   0.19716  -0.75881
C     1.93762  -0.69596  -1.79624
N     2.18989  -1.44769  -2.65779
O     0.46107   0.16598  -0.08202
C    -0.62111  -0.50878  -0.21612
C    -0.79852  -1.49601  -1.36429
C    -1.14002  -0.90945  -2.69522
O    -0.72660  -2.68227  -1.11869
C    -1.66067  -0.28911   0.75776
C    -2.88012  -0.99913   0.66932
C    -3.88465  -0.77297   1.60584
C    -3.69133   0.15592   2.63406
C    -2.48438   0.86459   2.72846
C    -1.47310   0.64859   1.80206
H     4.01887   2.37230   1.63183
H     3.38567   3.59342   0.48075
H     2.58898   3.36927   2.07880
H    -2.22331  -0.69123  -2.67882
H    -0.61901   0.04282  -2.87098
H    -0.92442  -1.63332  -3.49264
H    -3.03993  -1.72823  -0.12601
H    -4.82419  -1.32407   1.53408
H    -4.48293   0.32990   3.36613
H    -2.33732   1.58854   3.53240
H    -0.53233   1.19605   1.86836
