45
Generated by autodE on: 2022-06-04. E = -6235.460935 Ha
C    -3.09712   2.85035  -1.29449
N    -2.42567   1.95910  -0.37257
C    -2.50517   0.63416  -0.49559
O    -3.28200   0.04737  -1.26254
C    -1.54028  -0.16255   0.42749
C    -2.42088  -1.11988   1.31150
O    -2.22196  -1.18115   2.53014
N    -3.37464  -1.81453   0.69274
C    -4.26172  -2.70211   1.41963
N    -0.79459   0.70171   1.33067
C     0.63833   0.61066   1.14234
C     1.32917   0.68421   2.54204
C     2.82120   0.77040   2.62334
O     0.62464   0.66698   3.53077
C     1.10792   1.84393   0.32864
O     0.40653   2.82097   0.16524
O     2.36210   1.76493  -0.07123
C     2.88717   2.86966  -0.81961
C     0.80877  -0.82699   0.50177
C     0.76913  -1.90269   1.59664
Br    2.48908  -1.21495  -0.48767
C    -0.44122  -0.91139  -0.42809
C    -0.79395  -2.28770  -0.94813
Br   -0.06264   0.20096  -2.09224
H    -3.13296   3.85971  -0.86500
H    -2.57088   2.89684  -2.26376
H    -4.12264   2.50215  -1.47788
H    -1.63465   2.30138   0.17781
H    -3.56369  -1.56179  -0.27900
H    -4.89640  -2.14737   2.13010
H    -3.68371  -3.44550   1.98891
H    -4.90498  -3.22503   0.70155
H    -1.02231   0.46117   2.29872
H     3.31414   0.15928   1.85615
H     3.12253   1.81554   2.44378
H     3.14008   0.47691   3.63159
H     2.86753   3.78647  -0.21354
H     3.91838   2.59807  -1.07111
H     2.29757   3.02035  -1.73526
H     1.66716  -1.83974   2.22429
H     0.74998  -2.90306   1.14933
H    -0.11020  -1.78530   2.23962
H    -1.04074  -2.96547  -0.12082
H    -1.66396  -2.22827  -1.61384
H     0.05320  -2.70841  -1.50633
