12
Generated by autodE on: 2022-06-04. E = -5304.473063 Ha
C     1.10509  -2.46204   0.45192
C     0.46419  -1.12913   0.20909
Br    1.75981   0.24245  -0.13972
C    -0.85404  -0.86903   0.22275
C    -1.94855  -1.85905   0.48428
Br   -1.53810   0.89344  -0.10623
H     1.71004  -2.76272  -0.41855
H     1.78341  -2.41120   1.31888
H     0.36031  -3.24467   0.64149
H    -2.54111  -1.55496   1.36216
H    -2.63784  -1.90661  -0.37403
H    -1.55422  -2.86643   0.66628
