33
Generated by autodE on: 2022-06-04. E = -930.949779 Ha
C    -4.30549   1.53998   1.54910
N    -3.12876   0.72340   1.32083
C    -2.08317   1.18699   0.62029
O    -2.03528   2.33075   0.14536
C    -0.92125   0.26064   0.42858
N     0.07514   0.82672  -0.20191
C     1.31944   0.46561  -0.61897
C     2.06941   1.61336  -1.13353
C     3.45615   1.45566  -1.69293
O     1.53221   2.73179  -1.10902
C     1.66823  -0.94483  -0.69203
O     0.84779  -1.85339  -0.62004
O     2.97466  -1.17659  -0.87686
C     3.36584  -2.54409  -1.05226
C    -0.77641  -1.02522   1.19733
O     0.06084  -1.06759   2.09985
N    -1.68090  -1.99528   0.96010
C    -2.39357  -2.18160  -0.29361
H    -4.79139   1.81160   0.59839
H    -5.01494   0.97231   2.16239
H    -4.04159   2.47041   2.07485
H    -3.12259  -0.23758   1.64955
H    -0.10956   1.82881  -0.42376
H     4.14651   1.09865  -0.91459
H     3.47491   0.71107  -2.50179
H     3.79211   2.43048  -2.06924
H     4.45163  -2.52850  -1.20182
H     3.11362  -3.13528  -0.16013
H     2.86852  -2.98067  -1.93061
H    -1.56047  -2.82158   1.54426
H    -3.41180  -2.54708  -0.10081
H    -2.46171  -1.23175  -0.83861
H    -1.86866  -2.90458  -0.93833
