33
Generated by autodE on: 2022-07-27. E = -930.943016 Ha
C    -1.23524   1.56926  -3.21018
N    -0.90035   1.12407  -1.87199
C    -1.50403   0.06821  -1.32892
O    -2.38205  -0.57437  -1.93730
C    -1.11507  -0.38459   0.04486
N     0.06901  -0.37221   0.62824
C     1.35688   0.04310   0.50903
C     2.22705  -0.67898   1.45575
C     3.69468  -0.37161   1.56880
O     1.71836  -1.54348   2.18201
C     1.76701   1.24573  -0.21361
O     1.05298   2.23304  -0.38501
O     3.03252   1.21176  -0.62257
C     3.57423   2.42114  -1.17481
C    -2.08745  -1.16400   0.90589
O    -1.70240  -1.55200   2.02257
N    -3.32004  -1.37876   0.44018
C    -4.29592  -2.12622   1.20606
H    -2.28050   1.91374  -3.27148
H    -1.10524   0.75505  -3.93891
H    -0.56978   2.39912  -3.47762
H    -0.25483   1.68441  -1.30631
H     0.00885  -0.99063   1.48070
H     4.09946  -0.93763   2.41752
H     4.21827  -0.66575   0.64707
H     3.87376   0.70364   1.71117
H     4.62371   2.20141  -1.40077
H     3.50371   3.24126  -0.44621
H     3.03556   2.69691  -2.09232
H    -3.46981  -1.16789  -0.54794
H    -5.27344  -2.03977   0.71625
H    -4.37127  -1.72822   2.22848
H    -4.02828  -3.19400   1.27698
