45
Generated by autodE on: 2022-06-04. E = -6235.387065 Ha. Imaginary frequency = -380.4 cm-1
C    -2.77641   2.91386  -1.56017
N    -2.21049   2.16880  -0.45291
C    -2.44019   0.85917  -0.33716
O    -3.27938   0.27556  -1.05078
C    -1.72801   0.10189   0.75334
C    -2.57391  -0.91103   1.52657
O    -2.18253  -1.28609   2.64656
N    -3.68527  -1.37706   0.95914
C    -4.45359  -2.44214   1.56833
N    -0.76753   0.57353   1.59893
C     0.56452   0.83015   1.41965
C     1.34555   0.47539   2.65177
C     2.83111   0.66494   2.72053
O     0.73607  -0.01996   3.59771
C     1.04231   1.91449   0.52655
O     0.33860   2.81432   0.08817
O     2.34031   1.85621   0.28580
C     2.89968   2.84893  -0.58285
C     0.85737  -1.19690   0.15523
C     0.85539  -2.20657   1.27113
Br    2.60619  -1.02612  -0.63711
C    -0.29372  -1.09095  -0.65625
C    -1.20383  -2.27062  -0.88963
Br   -0.11635  -0.00322  -2.25726
H    -3.87542   2.87184  -1.54132
H    -2.43915   2.51387  -2.53114
H    -2.45994   3.96097  -1.47763
H    -1.36803   2.54951  -0.01007
H    -3.89640  -1.01341   0.02482
H    -5.33371  -2.64521   0.94639
H    -4.78663  -2.16175   2.57942
H    -3.85583  -3.36487   1.65282
H    -0.86345   0.05399   2.49611
H     3.33121   0.17791   1.87160
H     3.08618   1.73368   2.66780
H     3.18659   0.24237   3.66859
H     3.96810   2.61623  -0.65148
H     2.43199   2.79060  -1.57588
H     2.75219   3.85425  -0.16403
H     0.89919  -3.22574   0.85017
H     1.72083  -2.08523   1.93380
H    -0.06088  -2.12758   1.87157
H    -2.16357  -1.95472  -1.31427
H    -1.39146  -2.82322   0.03953
H    -0.71651  -2.96103  -1.60052
