19
Generated by autodE on: 2022-06-18. E = -568.918609 Ha
C     3.92976   0.11284  -0.16107
N     2.50896   0.39251  -0.09985
C     1.60224  -0.59946  -0.06046
O     1.88378  -1.80636  -0.06860
C     0.19857  -0.17856  -0.00471
N    -0.83759  -0.99970   0.03832
C    -2.01958  -0.30661   0.08118
C    -3.36760  -0.92545   0.13833
C    -1.68358   1.06431   0.06201
O    -2.30177   2.12206   0.08225
O    -0.23968   1.07835   0.00638
H     4.47651   1.06291  -0.17410
H     4.25701  -0.47449   0.71131
H     4.18494  -0.45714  -1.06859
H     2.18690   1.35535  -0.09118
H    -0.73157  -2.01537   0.03889
H    -4.12193  -0.12756   0.18107
H    -3.49199  -1.56268   1.03000
H    -3.57651  -1.54664  -0.74899
