19
Generated by autodE on: 2022-07-27. E = -568.918605 Ha
C    -3.12437   0.31056  -2.37260
N    -1.80733   0.25166  -1.77040
C    -1.65027   0.03508  -0.45277
O    -2.58358  -0.11995   0.34784
C    -0.26492  -0.01175   0.02600
N     0.09482  -0.20096   1.28480
C     1.45897  -0.19134   1.41868
C     2.18994  -0.37336   2.69764
C     1.98880   0.02111   0.12767
O     3.10972   0.11968  -0.35750
O     0.82625   0.12899  -0.72333
H    -3.73665   1.09993  -1.90919
H    -3.01480   0.52795  -3.44148
H    -3.65974  -0.64544  -2.25681
H    -0.98319   0.36181  -2.35322
H    -0.58482  -0.33229   2.03564
H     1.93146   0.40434   3.43589
H     3.26917  -0.31122   2.50049
H     1.98192  -1.35419   3.15752
