42
Generated by autodE on: 2022-06-18. E = -920.432166 Ha. Imaginary frequency = -445.7 cm-1
C    -4.35867  -0.77371  -3.23840
N    -3.11898  -0.79226  -2.48574
C    -3.08643  -1.11719  -1.18604
O    -4.07881  -1.41350  -0.51008
C    -1.75205  -1.03719  -0.52784
C    -1.77560   0.76692   0.39175
C    -0.55462   0.87518   1.08027
C    -0.49306   0.54619   2.54983
C     0.57374   1.48063   0.42012
C     1.81128   1.69324   0.95198
C     2.90152   2.27547   0.20480
C     4.16709   2.50877   0.64123
C     5.19581   3.11704  -0.26931
C     4.65692   2.19159   2.02556
C    -0.10962  -1.90730   0.67508
C     0.60664  -2.54291   1.80243
N    -1.45558  -1.90651   0.48592
C     0.47335  -1.31354  -0.48021
O     1.63010  -1.14466  -0.84598
O    -0.61941  -0.91761  -1.28751
H    -5.13200  -0.21664  -2.68961
H    -4.18146  -0.28309  -4.20300
H    -4.73735  -1.79238  -3.42318
H    -2.24061  -0.61273  -2.96220
H    -2.69221   0.61607   0.96868
H    -1.90133   1.34634  -0.52734
H     0.46712   0.10286   2.84983
H    -1.29737  -0.14853   2.83355
H    -0.62519   1.46305   3.15344
H     0.41412   1.76439  -0.62667
H     1.99472   1.40878   1.99161
H     2.66946   2.54705  -0.83241
H     5.59107   4.05760   0.15579
H     6.06660   2.44590  -0.38292
H     4.79090   3.33157  -1.26936
H     3.89191   1.74279   2.67239
H     5.51537   1.49785   1.97886
H     5.03111   3.10587   2.51995
H     0.04038  -2.44542   2.74029
H     1.58701  -2.05997   1.92610
H     0.78433  -3.61769   1.62198
H    -2.14795  -2.16912   1.18500
