26
Generated by autodE on: 2022-06-02. E = -632.167701 Ha
C     1.04746  -1.05334  -0.64439
O    -0.06685  -0.50100  -0.33314
N    -1.24633  -1.05990  -0.74967
C    -2.29268  -0.29957  -0.28655
C    -3.58771  -0.75071  -0.65507
C    -4.72681  -0.06337  -0.24873
C    -4.62493   1.09352   0.53740
C    -3.35228   1.54604   0.90827
C    -2.19888   0.87101   0.51106
C     2.28318  -0.47192  -0.21924
C     3.48578  -1.12435  -0.57788
C     4.71262  -0.59638  -0.18509
C     4.76044   0.58349   0.56686
C     3.57222   1.23789   0.92663
C     2.34117   0.72158   0.54114
H     1.00659  -1.97245  -1.23937
H    -3.66815  -1.65135  -1.26814
H    -5.71030  -0.43465  -0.54928
H    -5.52089   1.63103   0.85506
H    -3.25368   2.44560   1.52232
H    -1.22069   1.24378   0.81468
H     3.44078  -2.04436  -1.16513
H     5.63753  -1.10518  -0.46498
H     5.72389   0.99627   0.87411
H     3.61346   2.15843   1.51290
H     1.41637   1.22993   0.81905
