50
Generated by autodE on: 2022-06-02. E = -1274.488198 Ha. Imaginary frequency = -187.9 cm-1
C     3.24207  -0.83575   2.54896
C     2.77794  -0.62019   1.08679
C     2.93269  -1.90763   0.38415
N     3.11952  -2.91836  -0.15325
C     3.67168   0.41870   0.33287
C     3.70349   1.85126   0.88760
C     2.59717   2.84564   0.46665
C     1.42061   3.06968   1.43064
C     0.20365   2.18829   1.19679
F    -0.75509   2.49978   2.12665
F    -0.35912   2.51136  -0.02659
C     0.55521   0.76686   1.20666
C     1.38083  -0.13525   1.08622
C    -0.24579  -1.95920   0.45967
C    -0.14650  -1.71161  -0.96351
C     0.31839  -2.81043  -1.72405
C     0.44470  -2.71761  -3.10655
C     0.13687  -1.51606  -3.75404
C    -0.29521  -0.41086  -3.01135
C    -0.44342  -0.49946  -1.63058
O    -1.04642  -1.48933   1.37116
N    -1.66916  -0.25038   1.37318
C    -2.62331  -0.07625   0.39073
C    -3.18142   1.22531   0.28393
C    -4.19376   1.49300  -0.62940
C    -4.70530   0.48255  -1.45888
C    -4.18378  -0.80797  -1.34131
C    -3.15697  -1.09313  -0.43898
H     4.29474  -1.15336   2.56057
H     2.62782  -1.60504   3.03683
H     3.14024   0.10225   3.10964
H     4.69425   0.00986   0.35186
H     3.35332   0.43696  -0.72124
H     3.79111   1.83547   1.98598
H     4.65654   2.27006   0.52936
H     3.08071   3.82667   0.34825
H     2.21108   2.58646  -0.53335
H     1.04821   4.10263   1.34215
H     1.73522   2.92260   2.47521
H     0.23071  -2.87000   0.83516
H     0.56970  -3.74175  -1.21432
H     0.78991  -3.58008  -3.68022
H     0.24382  -1.43652  -4.83833
H    -0.51715   0.53283  -3.51383
H    -0.73868   0.38318  -1.07399
H    -2.79543   2.01174   0.93109
H    -4.59552   2.50776  -0.69507
H    -5.50031   0.69964  -2.17531
H    -4.57607  -1.61561  -1.96514
H    -2.78782  -2.11496  -0.36065
