38
Generated by autodE on: 2022-06-18. E = -992.347307 Ha
C    -2.43642  -0.32085  -2.48953
O    -2.36666  -0.50416  -1.06663
C    -1.74285   0.43748  -0.35959
O    -1.37427   1.49817  -0.82037
C    -1.57777   0.00260   1.09169
O    -1.12955   1.07897   1.88999
C     0.23793   0.89429   2.29166
C     1.04833   2.17814   2.16129
C     0.33787   3.42422   1.73291
O     2.23883   2.14171   2.42829
C     0.78051  -0.28222   1.46607
C     1.38907   0.14071   0.11278
C     1.13794  -0.86507  -0.98279
C     1.75224  -0.71439  -2.31014
N     2.64383   0.29786  -2.45311
O     1.47364  -1.45000  -3.28074
C     0.28528  -1.91483  -0.80500
N    -0.41798  -2.15842   0.32991
C    -1.43051  -3.19966   0.37635
C    -0.50247  -1.11308   1.31533
H    -2.90807   0.64051  -2.73490
H    -1.42383  -0.36282  -2.91825
H    -3.04097  -1.15140  -2.87103
H    -2.56308  -0.33779   1.44474
H     0.25655   0.63283   3.36538
H    -0.46160   3.66000   2.45451
H    -0.16052   3.25028   0.76707
H     1.04676   4.25948   1.66493
H     1.51809  -0.84936   2.04675
H     2.46953   0.29240   0.26537
H     0.99337   1.12224  -0.19707
H     3.07771   0.43728  -3.35880
H     2.91408   0.90108  -1.68691
H     0.14271  -2.63216  -1.61494
H    -1.20334  -3.96466  -0.37747
H    -1.43573  -3.67597   1.36859
H    -2.43851  -2.79883   0.17677
H    -0.74293  -1.57319   2.28375
