18
Generated by autodE on: 2022-06-18. E = -534.526636 Ha
C    -3.83573   0.56771  -1.17854
O    -2.57089  -0.00449  -1.52989
C    -1.57524   0.15156  -0.63745
O    -1.70494   0.74618   0.42795
C    -0.35888  -0.46898  -1.10401
O     0.74704  -0.44674  -0.40996
C     1.07121   0.06027   0.74800
C     2.43728  -0.13130   1.18638
C     3.38351  -0.88880   0.28894
O     2.78587   0.33273   2.27754
H    -4.50929   0.35126  -2.01590
H    -4.22390   0.11393  -0.25434
H    -3.74500   1.65506  -1.03733
H    -0.27784  -0.99175  -2.05488
H     0.32679   0.59655   1.33418
H     4.36265  -0.96326   0.77913
H     2.99555  -1.89750   0.07626
H     3.49234  -0.37295  -0.67863
