52
Generated by autodE on: 2022-06-04. E = -1297.067364 Ha
C    -4.72936  -1.18692  -1.60508
N    -3.62634  -0.63448  -0.84305
C    -2.38910  -1.12803  -0.94222
O    -2.08478  -2.06789  -1.68373
C    -1.29571  -0.40916  -0.11407
C    -1.83606  -0.10380   1.30339
O    -2.82795   0.61958   1.48093
N    -1.18626  -0.69715   2.30671
C    -1.53977  -0.46620   3.69217
N    -0.15102  -1.29890  -0.03064
N     0.97101  -0.44675   0.09854
C     2.19002  -1.03310   0.40738
C     2.24121  -2.36213   0.88602
C     3.45838  -2.93561   1.25281
C     4.65637  -2.22164   1.14489
C     4.61276  -0.91293   0.65501
C     3.40467  -0.32012   0.28546
C     0.80534   0.80746  -0.62451
C     1.33107   1.99848   0.18351
C     1.22898   1.93237   1.68125
O     1.79822   2.97049  -0.38392
C     1.34635   0.68412  -2.10340
C     1.06164   1.95750  -2.87773
C    -0.25685   1.94146  -3.10696
C    -0.76111   0.66556  -2.45177
O     0.35659  -0.21433  -2.62943
C    -0.76497   0.88698  -0.87909
C    -1.45235   2.19518  -0.50451
H    -4.93707  -2.22988  -1.31588
H    -5.62557  -0.58273  -1.41965
H    -4.50528  -1.17185  -2.68260
H    -3.78310   0.08204  -0.13266
H    -0.40872  -1.30289   2.05701
H    -2.58041  -0.76628   3.89201
H    -0.87031  -1.05334   4.33213
H    -1.43756   0.59973   3.95174
H    -0.09653  -1.80144  -0.92315
H     1.31936  -2.93472   0.96944
H     3.46574  -3.96328   1.62545
H     5.60628  -2.67870   1.42943
H     5.53470  -0.33541   0.55025
H     3.42253   0.69727  -0.10313
H     1.39612   2.93353   2.09843
H     0.25806   1.53321   2.00251
H     1.99998   1.24780   2.06957
H     2.35057   0.25535  -2.17439
H     1.79371   2.72328  -3.12423
H    -0.88201   2.69861  -3.57837
H    -1.67948   0.23432  -2.85939
H    -2.50550   2.16775  -0.81854
H    -1.42857   2.39220   0.57210
H    -0.96773   3.03558  -1.01592
