31
Generated by autodE on: 2022-07-27. E = -797.439894 Ha
C    -3.88254  -0.04898  -2.96458
N    -3.20377   0.15201  -1.70271
C    -1.89603  -0.09285  -1.55971
O    -1.17166  -0.50954  -2.48845
C    -1.29537   0.15353  -0.22346
N     0.01638  -0.11558  -0.23081
N     0.86188  -0.04874   0.73609
C     2.19860  -0.31101   0.43138
C     2.74394  -0.32650  -0.87043
C     4.09823  -0.60342  -1.05422
C     4.93249  -0.85505   0.04122
C     4.39961  -0.81992   1.33508
C     3.04779  -0.54653   1.53135
C    -2.03527   0.63977   0.95547
O    -3.25982   0.89225   0.89429
N    -1.33646   0.79782   2.09380
C    -1.96763   1.27989   3.30377
H    -3.78863  -1.09154  -3.30861
H    -4.94646   0.18469  -2.83628
H    -3.47108   0.60201  -3.75326
H    -3.68566   0.49753  -0.86795
H     0.30266  -0.43057  -1.18301
H     2.13135  -0.09527  -1.74450
H     4.50886  -0.60875  -2.06663
H     5.99279  -1.06641  -0.11287
H     5.04257  -1.00737   2.19820
H     2.62108  -0.52037   2.53590
H    -0.34027   0.56499   2.06808
H    -2.77548   0.60615   3.63235
H    -1.21233   1.33854   4.09699
H    -2.40665   2.27996   3.15717
