52
Generated by autodE on: 2022-06-04. E = -1297.015481 Ha. Imaginary frequency = -361.9 cm-1
C    -4.45260  -1.81150  -1.84988
N    -3.55864  -1.24787  -0.85963
C    -2.26303  -1.57031  -0.82017
O    -1.72951  -2.35007  -1.62837
C    -1.40351  -0.89196   0.22433
C    -2.04788  -0.37582   1.49006
O    -3.25979  -0.08905   1.52432
N    -1.25259  -0.22748   2.55544
C    -1.71942   0.43899   3.75341
N    -0.19149  -1.54656   0.30046
N     0.79954  -0.96837   0.93268
C     2.08057  -1.51103   0.75086
C     2.43852  -2.40856  -0.27428
C     3.75544  -2.85845  -0.37185
C     4.72806  -2.42112   0.53426
C     4.37569  -1.52674   1.55173
C     3.06202  -1.07691   1.66208
C     0.61941   0.98557  -0.20555
C     1.15087   1.81494   0.87041
C     2.59510   2.23893   0.74545
O     0.48037   2.15760   1.84989
C     1.43247   0.65302  -1.47537
C     1.25979   1.85272  -2.42121
C    -0.01205   1.78485  -2.83334
C    -0.59055   0.54271  -2.13866
O     0.56185  -0.31191  -2.09177
C    -0.75355   0.89740  -0.62574
C    -1.79731   1.92445  -0.28079
H    -4.06707  -1.64044  -2.86658
H    -4.57704  -2.89878  -1.71483
H    -5.43384  -1.33021  -1.75689
H    -3.89564  -0.68146  -0.07487
H    -0.24811  -0.31445   2.37901
H    -2.60485  -0.06621   4.16642
H    -0.91898   0.41825   4.50323
H    -1.98907   1.48930   3.55245
H    -0.02132  -2.11642  -0.53958
H     1.70928  -2.75499  -1.00778
H     4.02515  -3.55471  -1.16914
H     5.75680  -2.77747   0.44781
H     5.12746  -1.18227   2.26528
H     2.76843  -0.38408   2.45254
H     3.24974   1.36750   0.59161
H     2.71992   2.89155  -0.13457
H     2.90384   2.78246   1.64801
H     2.44239   0.25480  -1.33752
H     2.01616   2.60963  -2.62638
H    -0.57208   2.46720  -3.47178
H    -1.44084   0.05757  -2.62607
H    -2.80538   1.57541  -0.54271
H    -1.77756   2.19617   0.77973
H    -1.59644   2.83779  -0.86741
