71
Generated by autodE on: 2022-06-14. E = -1782.268903 Ha. Imaginary frequency = -274.1 cm-1
C    20.88564   2.52795  12.50838
C    21.73597   1.34398  12.11008
O    21.22665   0.45502  11.41736
C    23.14057   1.27428  12.52547
C    24.17815   0.52773  11.77125
C    23.86889  -0.14872  10.46503
O    25.34398   0.56153  12.18368
N    23.73383   2.14705  13.40206
C    23.22318   2.79541  14.45049
C    24.16910   3.36786  15.42122
C    25.19947   2.57929  15.96594
C    26.08824   3.12545  16.89173
C    25.96609   4.46615  17.27495
C    24.95253   5.25848  16.72608
C    24.05515   4.71195  15.80931
C    22.16708   1.02851  15.38264
C    22.31240   0.05802  14.61411
C    22.06740  -1.39305  14.49961
C    23.13001  -2.18940  13.76820
F    23.02748  -3.50048  14.06671
F    24.37410  -1.80257  14.11542
F    23.05247  -2.09926  12.42751
C    20.64025  -1.72860  14.02458
C    19.58371  -0.78169  14.60588
C    19.64991  -0.51889  16.13198
C    20.00099   0.92068  16.54994
C    21.51813   1.29572  16.72165
C    21.57976   2.76597  17.18558
C    22.32958   3.16490  18.30158
C    22.32409   4.49252  18.73932
C    21.56940   5.45533  18.06728
C    20.83626   5.07847  16.93853
C    20.84448   3.75149  16.50407
C    22.15773   0.37370  17.78357
C    23.41097  -0.22624  17.60215
C    23.98225  -1.02597  18.59860
C    23.30737  -1.24606  19.80031
C    22.05576  -0.65271  19.99609
C    21.49174   0.14734  19.00092
H    19.98907   2.52869  11.87532
H    21.41962   3.48309  12.39831
H    20.56570   2.42994  13.55686
H    24.74645  -0.72808  10.15013
H    23.66914   0.63735   9.71588
H    22.97611  -0.77494  10.51318
H    24.73764   1.92791  13.45363
H    22.24986   3.26362  14.35863
H    25.28385   1.52859  15.68055
H    26.87421   2.50110  17.32270
H    26.65913   4.89149  18.00459
H    24.85274   6.30455  17.02381
H    23.25503   5.32389  15.39146
H    22.17108  -1.75447  15.53869
H    20.42945  -2.77038  14.31377
H    20.59776  -1.67823  12.92711
H    19.64228   0.17814  14.07011
H    18.59878  -1.20343  14.35045
H    20.32759  -1.23408  16.62550
H    18.65762  -0.73028  16.55906
H    19.56021   1.60734  15.81514
H    19.50865   1.15467  17.50445
H    22.93367   2.43608  18.84033
H    22.92147   4.77273  19.61014
H    21.56228   6.49240  18.41074
H    20.25389   5.82149  16.38817
H    20.26907   3.48717  15.61575
H    23.95074  -0.07686  16.66882
H    24.96136  -1.47991  18.42667
H    23.74976  -1.87344  20.57774
H    21.51362  -0.81127  20.93161
H    20.52341   0.61294  19.18788
