23
Generated by autodE on: 2022-06-17. E = -351.521385 Ha
C     3.74139   0.02380  -0.54773
C     2.53069  -0.48189  -0.22486
C     2.37188  -1.91451   0.21605
C     1.34229   0.36556  -0.29922
C     0.07577  -0.02077  -0.00344
C    -1.06960   0.86158  -0.09538
C    -2.36234   0.55329   0.17921
C    -3.44608   1.58412   0.03566
C    -2.83340  -0.79724   0.63877
H     4.64681  -0.58772  -0.50142
H     3.85307   1.06456  -0.86720
H     1.68797  -2.46278  -0.45300
H     1.93595  -1.97304   1.22725
H     3.33831  -2.43795   0.22609
H     1.51079   1.39917  -0.62479
H    -0.09995  -1.04979   0.32191
H    -0.85306   1.88537  -0.42381
H    -3.05523   2.55450  -0.30401
H    -4.21507   1.24628  -0.68220
H    -3.97162   1.73583   0.99570
H    -3.58694  -1.19781  -0.06219
H    -2.02810  -1.53683   0.73412
H    -3.34048  -0.71247   1.61623
