15
Generated by autodE on: 2022-06-17. E = -495.114649 Ha
C    -1.92407  -1.34714  -0.31773
C    -1.30259  -0.01555  -0.08621
O    -1.87794   1.01833   0.17598
C     0.21778   0.03882  -0.13499
O     0.80424   0.19266  -1.24296
O     0.05476   0.25449  -2.36158
C     1.04535  -0.03980   1.10971
C     2.52652   0.09752   0.98533
O     0.43822  -0.22208   2.15133
H    -1.63777  -2.00650   0.52018
H    -1.51623  -1.78897  -1.24062
H    -3.01701  -1.25470  -0.37258
H     2.92001  -0.67874   0.30947
H     2.77491   1.07347   0.53755
H     2.98554   0.00613   1.97735
