38
Generated by autodE on: 2022-06-17. E = -846.641733 Ha. Imaginary frequency = -182.0 cm-1
C     4.73736   1.84493   1.25613
C     3.88341   1.14924   0.47187
C     4.06308   1.05994  -1.02079
C     2.74796   0.47617   1.08589
C     1.81915  -0.26021   0.41652
C     0.69476  -0.85809   1.07282
O    -0.69540   1.07433   1.63457
O    -1.81687   0.60904   1.04108
C    -1.64788   0.15752  -0.18433
C    -2.86138  -0.56774  -0.68826
C    -4.07506  -0.56953   0.19925
O    -2.84253  -1.12357  -1.77530
C    -0.73191   0.84127  -1.15926
C    -0.24449   2.23226  -0.85067
O    -0.46180   0.30432  -2.22266
C    -0.24875  -1.69319   0.45663
C     0.00559  -2.35132  -0.86886
C    -1.23699  -2.39438   1.35010
H     4.59019   1.90172   2.33863
H     5.59855   2.37096   0.83523
H     4.94498   1.62711  -1.34912
H     4.18348   0.01271  -1.34341
H     3.17824   1.45361  -1.54802
H     2.64096   0.59257   2.17012
H     1.90524  -0.37430  -0.66529
H     0.64701  -0.75897   2.15808
H    -4.41342   0.46456   0.37216
H    -3.84048  -1.00106   1.18311
H    -4.86951  -1.14866  -0.28796
H    -0.88276   2.76643  -0.13659
H     0.76357   2.16694  -0.41223
H    -0.17480   2.77502  -1.80433
H     0.68541  -1.79040  -1.51842
H    -0.93411  -2.52896  -1.41085
H     0.45834  -3.34053  -0.67412
H    -2.08814  -2.79987   0.78491
H    -0.73459  -3.25082   1.83468
H    -1.60804  -1.73533   2.14779
