38
Generated by autodE on: 2022-05-29. E = -1049.546688 Ha
C    -2.05586  -0.35767   2.21895
C    -1.66074  -0.74980   0.80089
F    -2.89706  -0.79904   0.10150
C    -1.12284  -2.18668   0.67137
C     0.22364  -2.56613   1.30406
C     1.48656  -2.11595   0.53727
C     2.26018  -0.91313   1.08754
C     1.42615   0.31451   1.40517
F     2.27482   1.37237   1.66119
F     0.77039   0.12189   2.60069
C     0.45798   0.69769   0.32574
C    -0.79546   0.26517   0.07609
C    -1.11790   0.80857  -1.36441
C    -2.52777   0.94556  -1.88372
N    -0.30545   2.04111  -1.44569
C     0.92071   1.43068  -0.95961
C     2.15081   2.28700  -0.98166
O     1.07060   0.34514  -1.97305
C    -0.18819  -0.06520  -2.23323
O    -0.46449  -0.96149  -2.99103
H    -2.86923  -1.02581   2.53789
H    -2.42080   0.67958   2.23998
H    -1.22572  -0.45215   2.92220
H    -1.90986  -2.82529   1.10336
H    -1.08765  -2.41070  -0.40741
H     0.22894  -3.66612   1.33778
H     0.26477  -2.24193   2.35504
H     2.20269  -2.95123   0.51261
H     1.22276  -1.92342  -0.51411
H     3.02259  -0.60723   0.35536
H     2.78626  -1.16819   2.02217
H    -3.16532   1.47119  -1.16067
H    -2.96731  -0.03650  -2.08786
H    -2.49895   1.52189  -2.81996
H    -0.64538   2.71417  -0.75427
H     2.27470   2.70483  -1.99032
H     2.04353   3.10763  -0.25986
H     3.04231   1.70413  -0.71890
