32
Generated by autodE on: 2022-06-04. E = -744.226740 Ha
C    -2.97746   2.19729   0.77734
N    -2.42183   1.09341   0.02364
C    -1.46267   0.28392   0.56433
O    -0.88776   0.60322   1.62602
C    -1.15530  -0.93541  -0.16093
C    -1.92952  -1.40183  -1.22441
N    -2.59265  -1.77842  -2.11941
N    -0.06242  -1.73060   0.27513
C    -0.34551  -3.14087   0.58329
C     1.10737  -1.19993   0.56058
C     2.09275  -1.96799   1.37936
C     1.49191   0.12193   0.02826
C     2.14392   1.05798   0.84770
C     2.54660   2.29077   0.32988
C     2.32198   2.59362  -1.01515
C     1.68896   1.65737  -1.84290
C     1.26542   0.43530  -1.32593
H    -2.17409   2.83484   1.17350
H    -3.60627   2.80368   0.11232
H    -3.59493   1.86537   1.63182
H    -2.95138   0.75144  -0.77098
H    -1.15412  -3.47978  -0.07428
H     0.53976  -3.76314   0.41474
H    -0.67523  -3.23048   1.62889
H     2.56795  -2.74372   0.75363
H     1.61615  -2.47131   2.23264
H     2.88916  -1.30895   1.74243
H     2.31397   0.83178   1.90153
H     3.03888   3.01573   0.98186
H     2.64329   3.55512  -1.42218
H     1.52532   1.88204  -2.89924
H     0.77219  -0.28820  -1.97602
