17
Generated by autodE on: 2022-06-04. E = -831.765982 Ha
F     1.01507  -1.34348  -1.45206
C     0.27908  -0.85804  -0.45045
C     0.54722   0.20575   0.32013
Cl    1.90234   1.27583   0.20392
C    -0.70948   0.48947   1.12799
C    -1.75964   1.04602   0.11329
C    -2.05605  -0.18708  -0.79106
C    -1.13895  -1.30103  -0.18130
C    -1.23126  -0.95177   1.31989
H    -0.55629   1.09917   2.02658
H    -1.36060   1.90437  -0.44568
H    -2.66239   1.37871   0.64667
H    -1.82544  -0.01054  -1.85115
H    -3.11004  -0.49364  -0.72049
H    -1.37588  -2.32668  -0.49020
H    -2.26210  -0.98643   1.70332
H    -0.57284  -1.56827   1.94809
