49
Generated by autodE on: 2022-06-04. E = -1575.962936 Ha. Imaginary frequency = -328.2 cm-1
C     4.73151  -1.73069   0.83059
N     3.59111  -1.60173  -0.05339
C     2.32724  -1.61159   0.43698
O     2.11513  -1.84961   1.63429
C     1.24672  -1.25144  -0.52724
C     1.64227  -1.32035  -1.89386
N     2.07228  -1.39873  -2.97736
N    -0.09602  -1.48670  -0.17882
C    -0.40406  -2.55643   0.79553
C    -1.09311  -0.71838  -0.71367
C    -1.05169  -0.42767  -2.19274
C    -2.44115  -0.76344  -0.09184
C    -3.59839  -0.88443  -0.88765
C    -4.87015  -0.88174  -0.31223
C    -5.01883  -0.74462   1.07014
C    -3.88114  -0.61867   1.87424
C    -2.61062  -0.63215   1.30250
C    -0.16454   1.40559  -0.15103
Cl   -0.89186   2.46264  -1.36830
C    -0.37685   1.80909   1.30517
C     0.31566   3.19201   1.49424
C     1.82211   2.85819   1.30120
C     1.82350   1.30700   1.10494
C     0.64390   0.89421   2.00730
C     1.20345   1.08555  -0.25328
F     1.91256   1.40501  -1.35348
H     5.64629  -1.75107   0.22542
H     4.79717  -0.88935   1.54157
H     4.67458  -2.66138   1.41493
H     3.75418  -1.33089  -1.01667
H    -0.36501  -2.22532   1.83767
H    -1.40223  -2.94784   0.57223
H     0.32414  -3.36194   0.65905
H    -1.18217  -1.38105  -2.73366
H    -0.11480   0.02093  -2.52668
H    -1.85896   0.24819  -2.48229
H    -3.51188  -0.99999  -1.96764
H    -5.74963  -0.98751  -0.95142
H    -6.01464  -0.73495   1.51919
H    -3.98258  -0.50524   2.95591
H    -1.74262  -0.52724   1.94809
H    -1.41580   1.76763   1.65282
H     0.11452   3.56710   2.50861
H    -0.05618   3.93595   0.77751
H     2.27022   3.37195   0.43865
H     2.41579   3.11426   2.19079
H     2.79358   0.82820   1.27567
H     0.80721   1.17880   3.05661
H     0.41087  -0.17131   1.95719
