23
Generated by autodE on: 2022-06-17. E = -351.521381 Ha
C    -3.40231  -1.57893   0.47623
C    -2.50275  -0.64435   0.09796
C    -2.93689   0.63795  -0.56489
C    -1.07723  -0.86765   0.33070
C    -0.07734  -0.01283  -0.00153
C     1.32258  -0.28595   0.25237
C     2.37817   0.51311  -0.04570
C     3.78146   0.08793   0.28273
C     2.26470   1.85730  -0.70710
H    -3.08383  -2.50870   0.95773
H    -4.47462  -1.43843   0.31401
H    -2.62107   1.51576   0.02311
H    -4.02909   0.67575  -0.68217
H    -2.47749   0.74584  -1.56151
H    -0.81452  -1.81504   0.81674
H    -0.33079   0.93404  -0.48624
H     1.53694  -1.24577   0.73789
H     4.40424   0.05486  -0.62932
H     3.81492  -0.90093   0.76316
H     4.26483   0.81959   0.95501
H     1.23305   2.14685  -0.94465
H     2.70087   2.63893  -0.06009
H     2.85087   1.87353  -1.64290
