13
Generated by autodE on: 2022-06-17. E = -340.808997 Ha
C    -1.94587  -1.03198   0.09123
C    -1.31939   0.28841  -0.07384
C    -2.08701   1.53418  -0.26501
O    -0.05498   0.41845  -0.06024
N     0.73713  -0.76981   0.12073
C     1.99282  -0.37631   0.10443
N     3.15225  -0.16089   0.10911
H    -3.03838  -0.95789   0.05710
H    -1.61094  -1.47200   1.04635
H    -1.57296  -1.70753  -0.69797
H    -1.42776   2.40523  -0.36124
H    -2.71845   1.42582  -1.16359
H    -2.77557   1.66067   0.58788
