36
Generated by autodE on: 2022-06-17. E = -692.315300 Ha. Imaginary frequency = -353.8 cm-1
C     2.23640  -0.03259   1.65004
C     1.96648  -0.94912   0.69238
C     3.02671  -1.88066   0.16394
C     0.65310  -1.07828   0.08035
C    -0.53013  -0.47558   0.54643
C    -1.81909  -1.14309   0.29585
C    -2.93151  -1.07256   1.05759
C    -4.17582  -1.82164   0.66467
C    -3.05023  -0.28346   2.33286
C    -0.61883   1.25651  -0.59347
C    -1.37901   0.83321  -1.81829
C    -1.27685   2.24579   0.31937
O     0.67916   1.54042  -0.74388
N     1.33166   0.63169  -1.59990
C     2.62198   0.88780  -1.52932
N     3.78933   1.03512  -1.53293
H     1.47464   0.64235   2.04621
H     3.24542   0.06401   2.05876
H     2.77238  -2.92762   0.40178
H     4.01379  -1.65601   0.59111
H     3.09515  -1.81124  -0.93318
H     0.55885  -1.84283  -0.69577
H    -0.44417   0.05652   1.49510
H    -1.85364  -1.76660  -0.60374
H    -4.04273  -2.38511  -0.27063
H    -5.02400  -1.12597   0.53343
H    -4.47806  -2.52779   1.45848
H    -3.35441  -0.94577   3.16245
H    -3.84423   0.47812   2.24155
H    -2.12334   0.22632   2.62498
H    -2.43364   0.66836  -1.57064
H    -1.31396   1.66501  -2.54224
H    -0.96385  -0.06359  -2.28847
H    -2.22712   1.84258   0.69069
H    -0.62404   2.49800   1.16605
H    -1.49829   3.16629  -0.24793
