48
Generated by autodE on: 2022-06-29. E = -1521.267993 Ha
C    -2.52915  -4.17123  -1.89106
O    -2.44670  -3.18635  -0.83960
C    -2.05398  -1.97540  -1.18225
O    -1.79511  -1.59241  -2.29622
C    -1.86273  -1.06069   0.05553
C    -2.74886  -1.43593   1.17301
N    -3.43246  -1.69423   2.07226
O    -2.13077   0.27603  -0.30501
C    -0.91681   1.03755  -0.32276
C    -0.68536   1.38942  -1.74124
N    -0.58741   1.67172  -2.86046
C    -1.25698   2.29095   0.56024
C    -1.95143   3.43017  -0.10364
O    -1.00901   2.22492   1.74210
C     0.15043   0.11088   0.27925
C    -0.39985  -1.09874   0.48549
C     0.18267  -2.40189   0.93771
C     0.99099  -3.11314  -0.17903
C     1.86277  -2.20695  -1.04951
C     2.98304  -1.45307  -0.32680
C     2.60898  -0.55541   0.86374
C     1.54956   0.57831   0.67553
C     1.49601   1.29038   2.07990
C     0.95950   0.50331   3.24320
O     1.97334   2.39604   2.22049
C     2.10422   1.58016  -0.35610
F     3.35773   1.95607  -0.09021
F     2.11384   1.04749  -1.59450
F     1.35685   2.70486  -0.43302
H    -1.54485  -4.29038  -2.36438
H    -2.83917  -5.10118  -1.40312
H    -3.27125  -3.85800  -2.63768
H    -1.24041   3.93913  -0.77580
H    -2.32012   4.13642   0.65024
H    -2.77793   3.05778  -0.72935
H     0.80429  -2.24136   1.82451
H    -0.63287  -3.06535   1.25903
H     0.28671  -3.64825  -0.83527
H     1.61227  -3.88425   0.30462
H     2.33397  -2.83710  -1.82179
H     1.22310  -1.49986  -1.60098
H     3.54384  -0.86495  -1.06863
H     3.69889  -2.18905   0.07711
H     2.28883  -1.17176   1.70636
H     3.52505  -0.05493   1.20936
H     1.79230  -0.07145   3.68089
H     0.16565  -0.19769   2.96421
H     0.59714   1.20826   4.00205
