20
Generated by autodE on: 2022-06-29. E = -719.078000 Ha
C    -2.75810   2.65107   0.90234
O    -1.71396   1.70811   0.59895
C    -2.08118   0.60170  -0.03269
O    -3.21375   0.31615  -0.37021
C    -0.94274  -0.29737  -0.30952
C    -1.16467  -1.51892  -0.98588
N    -1.38086  -2.51988  -1.54151
O     0.23003   0.09496   0.09354
C     1.45117  -0.35718   0.04920
C     1.80220  -1.57955  -0.57396
N     2.14036  -2.57447  -1.07644
C     2.48031   0.48309   0.69903
C     2.01547   1.75585   1.34152
O     3.64104   0.09809   0.68251
H    -2.26635   3.48408   1.41608
H    -3.51072   2.18632   1.55466
H    -3.23500   2.99851  -0.02502
H     1.52367   2.40035   0.59593
H     2.87743   2.27267   1.78060
H     1.26698   1.53627   2.11923
