49
Generated by autodE on: 2022-05-31. E = -1112.276251 Ha
C    -1.27715   2.75754  -2.77629
N    -1.36810   2.03809  -1.52389
C    -1.23200   0.70890  -1.44065
O    -1.13177  -0.03648  -2.42409
C    -1.09720   0.14940  -0.01369
C    -1.91794  -1.13697   0.13549
C    -1.52051  -2.16024   1.01017
C    -2.33517  -3.27592   1.23141
C    -3.56569  -3.39064   0.58112
C    -3.97697  -2.37542  -0.28854
C    -3.16307  -1.26169  -0.50324
C     0.42179  -0.09172   0.23813
C     1.41740   0.87227  -0.48683
O     1.37511   2.05147   0.32571
C     1.77205   1.41100   1.54404
C     3.03306   0.66499   1.12412
C     4.11653   0.31458   2.07175
C     2.81091   0.32739  -0.17211
C     3.58946  -0.54841  -1.05555
C     2.91470  -0.97492  -2.33605
O     4.73492  -0.91234  -0.78706
C     0.67169   0.31935   1.72293
C    -0.67581   0.84955   2.21497
N    -1.45091   1.15247   1.01404
C    -2.86063   1.37249   1.28264
H    -1.70402   3.76131  -2.65275
H    -0.23097   2.85917  -3.11381
H    -1.83713   2.22576  -3.55807
H    -1.30601   2.52879  -0.63353
H    -0.56468  -2.10288   1.53123
H    -2.00027  -4.05959   1.91532
H    -4.20054  -4.26363   0.75012
H    -4.93791  -2.44978  -0.80350
H    -3.50664  -0.47804  -1.18070
H     0.68213  -1.12757   0.00378
H     1.20719   1.10464  -1.53386
H     1.86593   2.12767   2.36823
H     3.68676  -0.17932   2.96078
H     4.86885  -0.33839   1.61619
H     4.60822   1.23240   2.43885
H     2.81417  -0.09902  -2.99959
H     3.51333  -1.74451  -2.84039
H     1.89385  -1.34456  -2.14966
H     1.03375  -0.50289   2.35218
H    -1.17990   0.07835   2.83252
H    -0.57760   1.75000   2.84255
H    -3.35307   0.50951   1.77385
H    -3.40378   1.59340   0.35356
H    -2.96627   2.24188   1.95030
