28
Generated by autodE on: 2022-05-31. E = -612.583017 Ha
C    -1.63803   2.76244  -0.36242
N    -0.58653   1.96484  -0.36493
C     0.70024   2.59670  -0.74114
C    -0.53730   0.61017  -0.07850
C    -1.74222  -0.14141   0.17150
O    -2.90695   0.33171   0.12597
N    -1.58187  -1.46901   0.49922
C    -2.72214  -2.35508   0.56496
C     0.79051  -0.06635  -0.02737
C     1.64331   0.08063   1.08249
C     2.87398  -0.57828   1.13705
C     3.26961  -1.41369   0.08721
C     2.42825  -1.58393  -1.01674
C     1.20322  -0.91349  -1.07325
H    -1.48849   3.80096  -0.64884
H    -2.60396   2.35668  -0.08537
H     1.37759   2.60440   0.11998
H     1.16509   2.02697  -1.55370
H     0.50792   3.62279  -1.06805
H    -0.66615  -1.88546   0.38239
H    -2.38668  -3.34254   0.90895
H    -3.22569  -2.48149  -0.41147
H    -3.47426  -1.97893   1.27494
H     1.33060   0.72059   1.91127
H     3.52310  -0.44633   2.00622
H     4.22968  -1.93357   0.13132
H     2.72998  -2.23543  -1.84055
H     0.55009  -1.04079  -1.94004
