21
Generated by autodE on: 2022-05-31. E = -499.581913 Ha
C     2.60206  -1.03224  -0.63722
C     1.76475   0.22216  -0.62158
O     2.16757   1.26270  -1.14589
C     0.46265   0.12667   0.04040
C    -0.58912   0.98023  -0.00149
C    -0.80021   2.28239  -0.67068
C    -1.71554   0.24088   0.76030
C    -2.15102  -0.94029  -0.13443
C    -1.12190  -1.79219  -0.09356
C    -0.07562  -1.10775   0.81392
O    -0.94050  -0.44703   1.75644
H     3.50611  -0.87578  -1.23993
H     2.88809  -1.30262   0.39291
H     2.02153  -1.87922  -1.03863
H     0.08182   2.60457  -1.23503
H    -1.67105   2.21186  -1.34683
H    -1.05546   3.05495   0.07578
H    -2.50152   0.86783   1.19582
H    -3.07898  -0.98768  -0.70296
H    -0.97655  -2.73684  -0.61671
H     0.65952  -1.74845   1.31049
