49
Generated by autodE on: 2022-05-31. E = -1112.159584 Ha. Imaginary frequency = -243.2 cm-1
C    -0.81813   2.31885  -2.83734
N    -1.12170   1.88668  -1.48762
C    -1.68489   0.65287  -1.28491
O    -2.07912  -0.00697  -2.27227
C    -1.75537   0.09963   0.06783
C    -2.40160  -1.24659   0.19831
C    -1.80354  -2.37831   0.77833
C    -2.50270  -3.58514   0.90338
C    -3.81549  -3.69251   0.44308
C    -4.42868  -2.57736  -0.14016
C    -3.73157  -1.37511  -0.25629
C     0.86388  -0.51738   0.30170
C     1.52386   0.62303  -0.48523
O     1.17283   1.75111   0.34392
C     1.72313   1.20397   1.55796
C     3.16948   0.92429   1.09556
C     4.32572   0.97399   2.01751
C     3.04646   0.55873  -0.20571
C     4.05918   0.04617  -1.12891
C     3.54969  -0.53467  -2.42511
O     5.26640   0.07534  -0.87735
C     1.01295  -0.16497   1.61800
C    -1.19296   0.32723   2.35621
N    -1.63160   0.86348   1.21865
C    -1.82370   2.32873   1.24007
H    -0.37785   3.32413  -2.79593
H    -0.10712   1.64484  -3.34918
H    -1.73063   2.36305  -3.44960
H    -0.49521   2.22622  -0.76432
H    -0.77603  -2.33462   1.13498
H    -2.00917  -4.44573   1.36167
H    -4.35948  -4.63538   0.53809
H    -5.45870  -2.64294  -0.49988
H    -4.22168  -0.50975  -0.70567
H     0.68325  -1.50219  -0.12098
H     1.22249   0.77255  -1.52497
H     1.60458   1.88219   2.40979
H     4.12878   0.32682   2.89099
H     5.25651   0.66326   1.53051
H     4.44775   1.99604   2.41719
H     3.05424   0.25112  -3.01906
H     4.38120  -0.96155  -3.00078
H     2.79059  -1.30936  -2.22770
H     1.07473  -0.82702   2.47963
H    -1.24213  -0.74723   2.49008
H    -1.18761   0.96192   3.24293
H    -2.25364   2.59408   2.21286
H    -2.51872   2.62572   0.45132
H    -0.86882   2.85539   1.12007
