28
Generated by autodE on: 2022-10-06. E = -948.705149 Ha
C     4.21368   0.64756   0.01141
O     2.86290   0.58631  -0.46937
C     2.07086  -0.30620   0.11446
O     2.44853  -1.15769   0.89256
C     0.62529  -0.26281  -0.39775
C     0.43385  -1.49602  -1.18988
N     0.27632  -2.45416  -1.82476
N     0.29862   0.89454  -1.23244
C    -1.17972   0.95640  -1.23611
C    -1.67910   2.38096  -1.38517
C    -1.68183   0.24165   0.06279
C    -2.72655  -0.85343  -0.25319
O    -3.67886  -0.48943  -0.99717
O    -2.58047  -1.99940   0.24433
C    -0.40205  -0.23313   0.77028
C     0.03491   0.76626   1.86597
O     1.12012   1.38908   1.69620
O    -0.74525   0.89431   2.83850
H     4.71987  -0.31802  -0.12946
H     4.21848   0.91494   1.07822
H     4.70957   1.42718  -0.57801
H     0.65265   1.69678  -0.70612
H    -1.53410   0.37082  -2.09915
H    -1.36563   2.99395  -0.52319
H    -1.29565   2.84990  -2.30529
H    -2.77826   2.38006  -1.42736
H    -2.20154   0.96620   0.70828
H    -0.55573  -1.21855   1.22661
