18
Generated by autodE on: 2022-10-06. E = -493.612681 Ha
C    -3.70581   1.00221   0.16259
C    -2.37665   0.66386   0.71403
N    -1.36497   0.36574  -0.03719
C    -0.05405   0.02346   0.29431
C     0.34597  -0.04386   1.63354
N     0.66109  -0.09478   2.76069
C     0.80557  -0.24175  -0.82256
O     0.44447  -0.18099  -1.99925
O     2.06428  -0.56857  -0.45608
C     2.98496  -0.85004  -1.51350
H    -4.00368   2.01124   0.49589
H    -3.71625   0.96428  -0.93636
H    -4.46397   0.30518   0.55903
H    -2.21400   0.65792   1.79631
H    -1.50322   0.36743  -1.05691
H     3.10719   0.02322  -2.17167
H     3.93929  -1.08770  -1.02805
H     2.64580  -1.70879  -2.11210
