18
Generated by autodE on: 2022-10-13. E = -493.610731 Ha
C    -2.65503   2.10400  -1.34925
C    -2.03889   0.79484  -1.04807
N    -0.89137   0.68415  -0.45638
C    -0.16567  -0.45503  -0.09861
C    -0.67039  -1.72969  -0.38757
N    -1.10668  -2.78756  -0.63639
C     1.09589  -0.30363   0.56689
O     1.82336  -1.22535   0.92828
O     1.41873   1.00233   0.76532
C     2.65930   1.26729   1.42410
H    -3.64774   2.16926  -0.87180
H    -2.82407   2.19740  -2.43590
H    -2.03028   2.94084  -1.00520
H    -2.55045  -0.13224  -1.32491
H    -0.40967   1.55208  -0.19475
H     2.74317   2.35895   1.48663
H     2.66667   0.83237   2.43472
H     3.50362   0.85864   0.84915
