10
Generated by autodE on: 2022-10-06. E = -455.051689 Ha
O    -2.69650  -0.88782   0.87803
C    -1.90283   0.02838   0.52366
O    -2.18534   1.25387   0.42315
C    -0.49079  -0.41208   0.19497
C     0.49104   0.41222  -0.19503
C     1.90290  -0.02839  -0.52370
O     2.69666   0.88784  -0.87780
O     2.18493  -1.25401  -0.42330
H    -0.28245  -1.48335   0.28984
H     0.28282   1.48351  -0.28988
