28
Generated by autodE on: 2022-10-06. E = -948.655499 Ha. Imaginary frequency = -452.8 cm-1
C     3.85749   0.90894   0.58238
O     2.67550   0.76341  -0.21358
C     2.15660  -0.47202  -0.30816
O     2.73415  -1.47856   0.07707
C     0.81465  -0.46276  -0.87454
C     0.27242  -1.71493  -1.25912
N    -0.17860  -2.74526  -1.57032
N     0.26733   0.70077  -1.37755
C    -1.07912   0.82917  -1.47149
C    -1.64683   2.15066  -1.87800
C    -1.68167   0.45525   0.45450
C    -3.00992  -0.21395   0.13615
O    -4.01923   0.54291   0.09194
O    -3.00470  -1.45355  -0.09353
C    -0.65025  -0.26048   1.06965
C     0.42640   0.44091   1.85265
O     0.54059   1.69095   1.69699
O     1.16416  -0.27736   2.58846
H     4.68888   0.32669   0.15986
H     3.65421   0.57824   1.61088
H     4.10034   1.97781   0.56953
H     0.78427   1.53690  -1.10200
H    -1.57950  -0.06092  -1.86355
H    -1.11338   2.97875  -1.38610
H    -1.58078   2.28671  -2.97076
H    -2.70763   2.18984  -1.59516
H    -1.73711   1.51530   0.71767
H    -0.74061  -1.34016   1.20118
