35
Generated by autodE on: 2022-05-30. E = -1213.681211 Ha
C     4.21642   0.32605  -0.15263
O     2.79833   0.55234  -0.19524
C     2.01447  -0.42685   0.25502
O     2.41326  -1.49670   0.66181
C     0.58810  -0.01633   0.20352
C    -0.50241  -0.78673   0.11389
C    -0.53044  -2.28808  -0.02264
F    -0.35542  -2.89299   1.16382
F    -1.71655  -2.70448  -0.50607
F     0.41044  -2.74260  -0.85891
C    -1.77567   0.03593   0.14020
C    -2.80551  -0.44425   1.16406
C    -2.34813   0.12293  -1.30409
C    -3.72766   0.68692  -1.47116
O    -1.65974  -0.22078  -2.24804
N    -1.25268   1.36935   0.52493
C     0.18139   1.44773   0.24375
C     0.49163   2.11313  -1.03967
N     0.68659   2.66716  -2.04020
C     0.83832   2.19571   1.45009
C     0.72244   3.68443   1.46506
O     1.36205   1.53718   2.32198
H     4.67630   1.22688  -0.57331
H     4.54164   0.17785   0.88699
H     4.47917  -0.55633  -0.75263
H    -3.59254   0.31364   1.28055
H    -2.31471  -0.58512   2.13753
H    -3.27369  -1.38842   0.85521
H    -4.46137  -0.06507  -1.13640
H    -3.90586   0.92244  -2.52814
H    -3.87704   1.58067  -0.84645
H    -1.78406   2.15179   0.14529
H    -0.28223   4.00745   1.15196
H     0.96475   4.07398   2.46174
H     1.43702   4.09284   0.72958
