13
Generated by autodE on: 2022-05-30. E = -642.534039 Ha
C    -4.16066   0.05778   0.42104
O    -2.73411  -0.07766   0.57311
C    -1.99322   0.26809  -0.47160
O    -2.41272   0.68065  -1.53099
C    -0.57283   0.09413  -0.19745
C     0.61767  -0.02526  -0.02754
C     2.06199  -0.17156   0.19226
F     2.43014  -1.45753   0.11296
F     2.76624   0.51248  -0.71969
F     2.41428   0.28239   1.40295
H    -4.42121   1.10737   0.22495
H    -4.51443  -0.57345  -0.40614
H    -4.59311  -0.27468   1.37082
