35
Generated by autodE on: 2022-05-30. E = -1213.592988 Ha. Imaginary frequency = -244.8 cm-1
C     4.18713   0.62144  -0.74326
O     2.80733   0.21740  -0.79439
C     2.22842  -0.08323   0.36791
O     2.78233  -0.04236   1.45048
C     0.83677  -0.44708   0.19365
C    -0.16555  -1.17834   0.09602
C    -0.56806  -2.59187  -0.02047
F    -1.52872  -2.93045   0.85850
F    -1.03570  -2.87462  -1.25203
F     0.46806  -3.42186   0.20133
C    -2.04160   0.22679   0.09069
C    -3.13646  -0.34242   0.94516
C    -2.16892   0.14357  -1.40360
C    -3.21563  -0.77750  -1.96044
O    -1.48457   0.85192  -2.12414
N    -1.31258   1.19997   0.65807
C    -0.11457   1.76023   0.35543
C     0.33951   2.22674  -0.91080
N     0.87865   2.72241  -1.81691
C     0.54547   2.33942   1.57754
C     1.78023   3.16574   1.40926
O     0.03432   2.11665   2.66791
H     4.46160   0.87033  -1.77426
H     4.81071  -0.20260  -0.36884
H     4.30535   1.49926  -0.09292
H    -3.35753  -1.37729   0.66531
H    -2.85759  -0.32041   2.00756
H    -4.06176   0.24276   0.80961
H    -3.16334  -1.78200  -1.52220
H    -4.21121  -0.36756  -1.72030
H    -3.10010  -0.83162  -3.05006
H    -1.42440   1.26022   1.68349
H     2.27715   3.28574   2.37944
H     1.48113   4.15725   1.02778
H     2.47117   2.73850   0.67035
