19
Generated by autodE on: 2022-06-04. E = -643.820682 Ha
C    -2.03652   1.48520   1.69179
C    -2.28577   0.22095   0.92529
O    -3.35891  -0.36577   0.89189
C    -1.15443  -0.34536   0.16051
C    -1.32125  -1.53487  -0.58947
N    -1.51184  -2.51485  -1.18959
O    -0.02588   0.30564   0.21604
C     1.16746   0.16059  -0.28902
C     1.52164  -0.91684  -1.13741
N     1.86577  -1.78153  -1.83791
C     2.16952   1.18779   0.06661
C     1.73180   2.29509   0.97707
O     3.29719   1.07986  -0.39568
H    -1.22184   1.33750   2.41784
H    -2.95762   1.77490   2.21201
H    -1.72076   2.28858   1.00764
H     0.88279   2.84013   0.53568
H     1.38844   1.88240   1.93885
H     2.57449   2.97784   1.14026
