32
Generated by autodE on: 2022-06-04. E = -6098.510786 Ha. Imaginary frequency = -210.2 cm-1
C    -0.36800  -3.51409   1.85466
C    -0.79057  -3.07912   0.48459
O    -1.81312  -3.45039  -0.07249
C     0.09369  -2.12628  -0.23487
C    -0.05546  -2.00453  -1.64189
N    -0.23413  -1.95314  -2.79076
O     1.19250  -1.76218   0.39795
C     2.01234  -0.76841   0.11204
C     2.28644  -0.36013  -1.21960
N     2.57298   0.01005  -2.28525
C     2.98570  -0.39793   1.17191
C     2.93377  -1.16396   2.45840
O     3.76615   0.51481   0.94394
C     0.10946   0.95908   0.40108
Br    0.63079   2.35143  -0.73422
C     0.22218   1.11955   1.93673
C    -0.97209   2.00561   2.35087
C    -2.05052   1.23404   2.18452
C    -1.50268  -0.11521   1.67145
O    -0.23886  -0.17479   2.34397
C    -1.01175   0.15660   0.22825
Br   -2.24680   0.30274  -1.17020
H    -0.20066  -2.64424   2.50597
H    -1.14102  -4.16717   2.27762
H     0.58961  -4.05591   1.78903
H     3.11129  -2.23365   2.26250
H     3.69813  -0.77136   3.13997
H     1.93619  -1.08210   2.91401
H     1.20718   1.36700   2.34339
H    -0.89670   3.04744   2.65851
H    -3.10585   1.46716   2.31768
H    -2.11340  -1.00820   1.83484
