33
Generated by autodE on: 2022-10-21. E = -3396.883510 Ha
C     4.10745  -1.69837   1.71270
O     2.77429  -1.49401   1.21474
C     2.61991  -0.52817   0.31150
O     3.51136   0.18677  -0.09174
C     1.20345  -0.43704  -0.17392
N     0.55185  -1.49608  -0.51826
C    -0.75293  -1.04591  -1.02703
C    -0.86424  -1.42916  -2.50712
C    -1.87495  -1.60777  -0.14742
C    -1.71710  -1.60427   1.24801
C    -2.73817  -2.06300   2.08091
C    -3.93721  -2.53072   1.53107
C    -4.10277  -2.53283   0.14475
C    -3.07829  -2.07298  -0.69088
C    -0.73246   0.47295  -0.89185
O    -1.82025   1.11514  -1.27784
C    -1.90110   2.54666  -1.24414
C     0.47846   0.82394  -0.37011
Br    1.15282   2.51609   0.14887
H     4.47706  -0.78461   2.19973
H     4.03524  -2.51562   2.43903
H     4.78305  -1.97483   0.89064
H    -1.77118  -0.99756  -2.95084
H     0.00584  -1.03776  -3.05329
H    -0.89305  -2.52204  -2.61647
H    -0.78503  -1.24194   1.68599
H    -2.59671  -2.05622   3.16431
H    -4.73726  -2.89143   2.18181
H    -5.03448  -2.89524  -0.29617
H    -3.23093  -2.08145  -1.77006
H    -2.88452   2.79686  -1.65972
H    -1.83114   2.91510  -0.21168
H    -1.11208   2.99390  -1.86467
