8
Generated by autodE on: 2022-10-21. E = -2765.505917 Ha
C    -3.66946  -0.04460  -0.03399
O    -2.61400  -0.98450  -0.35578
C    -1.39915  -0.56103  -0.20151
C    -0.24615  -0.20629  -0.07260
Br    1.47114   0.31266   0.11604
H    -3.58664   0.84372  -0.67721
H    -4.61114  -0.57077  -0.22824
H    -3.60196   0.24311   1.02543
