25
Generated by autodE on: 2022-10-21. E = -631.231041 Ha
C     3.85597  -0.66265   1.88756
O     2.70658  -0.01385   1.31716
C     2.79989   0.35024   0.03086
O     3.77525   0.16678  -0.67381
C     1.62191   1.11647  -0.38412
N     0.60900   0.66153  -0.90516
C    -0.52706   0.29891  -1.37097
C    -0.72142   0.21741  -2.85918
C    -1.61116  -0.02302  -0.42394
C    -1.37748  -0.05645   0.96681
C    -2.41283  -0.34896   1.85205
C    -3.69958  -0.62091   1.37107
C    -3.93932  -0.59929  -0.00577
C    -2.90677  -0.30491  -0.89852
H     3.59971  -0.85911   2.93489
H     4.06551  -1.60719   1.36521
H     4.73596  -0.00600   1.82826
H     0.20995   0.46518  -3.38409
H    -1.50695   0.91883  -3.18407
H    -1.03897  -0.79473  -3.15587
H    -0.37427   0.13392   1.35305
H    -2.21338  -0.37164   2.92599
H    -4.50895  -0.85326   2.06692
H    -4.93905  -0.81249  -0.39136
H    -3.11482  -0.28904  -1.96887
