33
Generated by autodE on: 2022-10-21. E = -3396.727135 Ha. Imaginary frequency = -309.8 cm-1
C     3.83563  -1.38723   2.06558
O     2.58286  -1.21619   1.38131
C     2.64582  -0.98764   0.06545
O     3.67119  -0.93374  -0.58839
C     1.32583  -0.67067  -0.46835
N     0.46522  -1.32219  -1.03508
C    -0.77185  -1.38833  -1.44859
C    -1.04490  -1.40527  -2.92257
C    -1.82003  -1.67323  -0.45778
C    -1.51815  -1.79899   0.91557
C    -2.53310  -1.99886   1.84795
C    -3.86886  -2.08433   1.43482
C    -4.17746  -1.97206   0.07620
C    -3.16562  -1.77205  -0.86447
C    -0.86235   1.21464  -0.87946
O    -2.04307   1.29809  -1.43292
C    -2.75771   2.52997  -1.18297
C     0.21828   1.34905  -0.29965
Br    1.45394   2.33680   0.65817
H     4.45777  -0.48795   1.94949
H     3.58169  -1.54011   3.12053
H     4.37376  -2.26178   1.67309
H    -1.81967  -0.66184  -3.16373
H    -0.13481  -1.15914  -3.48455
H    -1.41516  -2.38990  -3.25334
H    -0.48213  -1.74136   1.25325
H    -2.28062  -2.09289   2.90677
H    -4.66238  -2.24292   2.16858
H    -5.21558  -2.04043  -0.25735
H    -3.42711  -1.68155  -1.91886
H    -3.71566   2.44042  -1.70972
H    -2.92621   2.65104  -0.10234
H    -2.18384   3.38364  -1.57395
