35
Generated by autodE on: 2022-06-17. E = -820.628028 Ha
C     5.01060   0.98890  -1.75474
C     3.88272   1.12699  -1.02916
C     3.53159   2.41618  -0.33568
C     2.96234  -0.00820  -0.90589
C     1.80848   0.00263  -0.21564
C     0.88754  -1.17904  -0.14583
N     0.67391  -1.53814   1.27647
N    -0.46920  -1.33077   1.68561
C    -1.35363  -0.75575   0.59072
C    -2.64210  -1.43866   0.64216
N    -3.65116  -2.00681   0.70291
C    -1.53002   0.74120   0.89761
O    -0.67427   1.41014   1.42748
O    -2.69744   1.19123   0.46892
C    -2.94824   2.60247   0.61592
C    -0.54740  -0.99264  -0.73919
C    -0.97558  -2.30443  -1.40970
C    -0.66775   0.15711  -1.73974
H     5.25037   0.04488  -2.25334
H     5.72058   1.81291  -1.86852
H     3.42860   2.26526   0.75175
H     2.56353   2.80612  -0.69168
H     4.29957   3.18317  -0.50815
H     3.25462  -0.92409  -1.43253
H     1.48451   0.89508   0.32436
H     1.38542  -2.03877  -0.61512
H    -2.20397   3.17500   0.04500
H    -3.95336   2.76912   0.21412
H    -2.90375   2.88427   1.67675
H    -2.00181  -2.23667  -1.79851
H    -0.30264  -2.50850  -2.25555
H    -0.91964  -3.15616  -0.71500
H    -0.03220  -0.05091  -2.61268
H    -1.70720   0.25277  -2.08569
H    -0.34933   1.12149  -1.32156
