23
Generated by autodE on: 2022-06-17. E = -351.521385 Ha
C     3.22321  -0.73752  -1.83402
C     2.42538  -0.42692  -0.78865
C     2.99338  -0.19101   0.58748
C     0.98104  -0.31354  -0.98140
C     0.07542  -0.01109  -0.01748
C    -1.34881   0.08789  -0.26355
C    -2.31511   0.38387   0.64213
C    -3.75948   0.44779   0.23311
C    -2.05753   0.66766   2.09479
H     4.30679  -0.82881  -1.71811
H     2.80776  -0.90775  -2.83209
H     2.75134   0.82239   0.94864
H     4.08627  -0.30770   0.59243
H     2.56631  -0.89584   1.32013
H     0.61856  -0.49232  -2.00087
H     0.42836   0.16798   1.00183
H    -1.66496  -0.09980  -1.29685
H    -4.36318  -0.27193   0.81488
H    -3.89895   0.23404  -0.83680
H    -4.18369   1.44501   0.44858
H    -0.99666   0.62048   2.37238
H    -2.61091  -0.04827   2.72797
H    -2.43862   1.66926   2.36158
