12
Generated by autodE on: 2022-06-17. E = -469.079193 Ha
C    -2.96151   0.18278   0.26685
O    -1.60781  -0.29496   0.35645
C    -0.66463   0.47802  -0.17621
O    -0.85118   1.54343  -0.72705
C     0.68012  -0.10914  -0.02600
C     1.82899   0.54636  -0.52396
N     2.75942   1.10739  -0.94337
N     0.81925  -1.27375   0.58935
N     0.90009  -2.26348   1.11684
H    -3.06190   1.14286   0.79254
H    -3.57980  -0.58260   0.74886
H    -3.25378   0.30394  -0.78578
