65
Generated by autodE on: 2022-07-01. E = -1367.902780 Ha
C    -4.48212  -2.27468   2.83458
O    -3.30674  -2.15175   2.01969
C    -3.24017  -1.08625   1.21769
O    -4.13110  -0.26459   1.15549
C    -1.95097  -1.05076   0.35514
C    -2.25158  -1.79747  -0.96030
C    -1.68132  -1.35822  -2.16384
C    -1.89406  -2.05998  -3.35334
C    -2.68198  -3.21454  -3.36113
C    -3.25244  -3.66086  -2.16602
C    -3.03964  -2.95868  -0.97606
C    -0.75524  -1.70173   1.12121
C     0.36799  -0.64638   1.17292
C     1.19281  -0.73053   2.46097
C     1.25115  -0.82582  -0.04954
C     2.52040  -0.39608  -0.17217
C     3.28335  -0.48236  -1.40510
C     4.44711   0.15590  -1.67766
C     5.15623   1.07004  -0.71741
C     5.11072   0.01279  -3.01894
C    -0.44726   0.71399   1.03378
C    -1.23455   1.11477   2.31108
C    -1.75404   2.52824   2.42872
O    -1.57285   0.28289   3.14179
C     0.45945   1.82499   0.53850
C     1.23490   2.53934   1.46222
C     2.20528   3.45019   1.03323
C     2.40805   3.66810  -0.33222
C     1.63301   2.96723  -1.26191
C     0.67318   2.05051  -0.82880
N    -1.50433   0.31997   0.09159
C    -2.41811   1.29851  -0.47548
H    -5.38287  -2.32113   2.20619
H    -4.55499  -1.41904   3.52098
H    -4.36152  -3.20629   3.39896
H    -1.06392  -0.46067  -2.16246
H    -1.44012  -1.69904  -4.27951
H    -2.85024  -3.76224  -4.29138
H    -3.86901  -4.56292  -2.15510
H    -3.48551  -3.33214  -0.05341
H    -0.41976  -2.61313   0.61164
H    -1.06289  -1.97827   2.13058
H     0.55246  -0.67807   3.34879
H     1.93038   0.08171   2.52335
H     1.74473  -1.68237   2.48354
H     0.77989  -1.29410  -0.91899
H     2.98957   0.11369   0.67237
H     2.83687  -1.09022  -2.20151
H     6.19703   0.73567  -0.56186
H     5.22000   2.08759  -1.14229
H     4.66784   1.14809   0.26204
H     5.21477   0.99614  -3.51185
H     6.13622  -0.38378  -2.90955
H     4.55021  -0.65451  -3.69023
H    -1.60185   3.13718   1.53181
H    -1.23254   3.01502   3.26912
H    -2.82305   2.48137   2.68540
H     1.09855   2.37256   2.53257
H     2.80558   3.98802   1.77082
H     3.16688   4.37758  -0.67043
H     1.78768   3.12182  -2.33230
H     0.11001   1.47407  -1.56180
H    -2.99808   0.82133  -1.27749
H    -1.84712   2.12295  -0.92332
H    -3.14030   1.72564   0.23633
