23
Generated by autodE on: 2022-07-01. E = -351.521383 Ha
C     3.62468   1.02919   0.32088
C     2.57609   0.21725   0.06207
C     2.78055  -1.20329  -0.39902
C     1.21103   0.71238   0.22835
C     0.07863   0.00071   0.00025
C    -1.25367   0.54046   0.18006
C    -2.43053  -0.10312  -0.02626
C    -3.74036   0.59592   0.20556
C    -2.54972  -1.52784  -0.48809
H     3.47291   2.06008   0.65551
H     4.65606   0.68477   0.20459
H     2.31925  -1.91880   0.30189
H     2.30707  -1.37489  -1.38000
H     3.84955  -1.44407  -0.48456
H     1.11636   1.75137   0.56641
H     0.16575  -1.03569  -0.33679
H    -1.30025   1.58238   0.51929
H    -4.34826   0.60453  -0.71705
H    -3.60445   1.63416   0.54234
H    -4.34184   0.05941   0.96139
H    -3.13061  -1.57786  -1.42599
H    -1.58364  -2.02039  -0.65762
H    -3.11353  -2.12285   0.25211
