38
Generated by autodE on: 2022-05-26. E = -877.055911 Ha
C     2.37741  -4.23790  -0.92946
N     1.57359  -3.18993  -0.33026
C     0.62090  -2.54285  -1.02202
O     0.36699  -2.80703  -2.20400
C    -0.13379  -1.45852  -0.25381
C    -1.65614  -1.67099  -0.44529
C    -2.59066  -0.85084   0.45370
C    -2.67193   0.66464   0.17488
C    -1.94789   1.60857   1.13588
C    -0.39574   1.37299   1.28944
C    -0.13077   0.28286   2.25480
N     0.07032  -0.52231   3.06401
C     0.17788   2.55773   1.96388
N     0.59061   3.47362   2.54140
C     0.23348   1.10547  -0.07163
C     0.31218  -0.09294  -0.70500
C     0.81892   0.20043  -2.08477
N     0.98831   1.63413  -2.18865
C     0.64496   2.14496  -1.04985
C     0.65986   3.61833  -0.80136
H     2.94755  -3.85902  -1.79252
H     3.08184  -4.61876  -0.18025
H     1.74791  -5.07098  -1.28001
H     1.73854  -2.93021   0.63639
H     0.09234  -1.58515   0.81099
H    -1.90318  -1.48855  -1.50325
H    -1.85463  -2.73876  -0.25789
H    -3.59685  -1.27394   0.30804
H    -2.35082  -1.03605   1.51387
H    -2.34704   0.87039  -0.85704
H    -3.72738   0.97635   0.21913
H    -2.06372   2.63942   0.77100
H    -2.38792   1.56503   2.14363
H     1.76885  -0.32112  -2.29599
H     0.11619  -0.16356  -2.85258
H    -0.30284   3.96374  -0.39329
H     1.43881   3.89184  -0.07352
H     0.85844   4.14722  -1.74280
