29
Generated by autodE on: 2022-05-26. E = -704.814459 Ha
C     0.28801   4.34265   1.32923
N     0.21591   3.06563   0.64511
C     1.19603   2.64732  -0.17003
O     2.21162   3.31398  -0.39524
C     1.03325   1.27390  -0.82006
C    -0.19956   0.54985  -0.55560
C    -0.97074  -0.36099  -0.34860
C    -1.30661  -1.75728  -0.04056
C    -2.53054  -2.21921  -0.72774
N    -3.46874  -2.59347  -1.29514
C    -1.49759  -1.91595   1.41823
N    -1.60515  -2.04595   2.56454
C    -0.07775  -2.63240  -0.51460
C     1.29629  -2.15164  -0.01494
C     2.09135  -1.12706  -0.87358
C     2.19048   0.32827  -0.37628
H     1.12878   4.36991   2.04095
H     0.42454   5.16640   0.61179
H    -0.64648   4.50414   1.87996
H    -0.58654   2.46494   0.80452
H     1.11763   1.44396  -1.90717
H    -0.11243  -2.63786  -1.61382
H    -0.27647  -3.65731  -0.16865
H     1.21221  -1.79241   1.02480
H     1.90712  -3.06480   0.04595
H     3.12646  -1.49760  -0.92537
H     1.72243  -1.14037  -1.91335
H     2.23919   0.33999   0.72516
H     3.12140   0.78368  -0.74374
