9
Generated by autodE on: 2022-05-26. E = -172.071446 Ha
C     1.76748   0.35538   0.30387
N     0.59566  -0.00786  -0.05904
C    -0.48543  -0.40648  -0.47406
C    -1.81070  -0.03479   0.10536
H     2.31731  -0.24095   1.03886
H     2.22039   1.24844  -0.13818
H    -2.42673   0.43084  -0.68107
H    -2.34314  -0.95318   0.40140
H    -1.74587   0.64748   0.97191
