32
Generated by autodE on: 2022-06-16. E = -615.024649 Ha
C     2.87034   0.42311   1.12210
C     2.06276   1.24116   0.15441
O     2.44686   2.32764  -0.25370
C     0.69320   0.73165  -0.27029
C    -0.37232   1.13238   0.76997
C    -0.74179   2.60750   0.75864
C    -1.52896   0.18918   0.40551
C    -2.58172   0.01102   1.48844
C    -0.81211  -1.12614  -0.06993
C    -0.84716  -2.28847   0.93141
C    -1.48745  -1.57400  -1.31122
N    -2.00731  -1.93206  -2.28629
N     0.58443  -0.71400  -0.32943
C     1.27478  -1.35272  -1.43346
H     3.72126   1.01404   1.48567
H     3.24438  -0.48391   0.62096
H     2.24754   0.08770   1.96489
H     0.46018   1.22536  -1.23703
H     0.00496   0.85459   1.76905
H    -1.14811   2.90273  -0.22243
H    -1.50275   2.82604   1.52319
H     0.13432   3.23986   0.96809
H    -2.01520   0.62406  -0.48241
H    -2.14489  -0.36547   2.42527
H    -3.36890  -0.68886   1.16824
H    -3.06404   0.97619   1.70524
H    -0.22939  -3.11791   0.55661
H    -0.43638  -1.95271   1.89329
H    -1.87000  -2.66013   1.08603
H     0.88881  -1.04392  -2.42644
H     1.18719  -2.44665  -1.35518
H     2.34600  -1.10451  -1.40021
