32
Generated by autodE on: 2022-06-16. E = -614.942327 Ha. Imaginary frequency = -381.6 cm-1
C     2.89044   0.52170   1.16651
C     2.06135   1.03856   0.01253
O     2.31707   2.16056  -0.45524
C     0.88795   0.35084  -0.49820
C    -0.68528   1.23121   0.94096
C    -0.99211   2.50240   0.19968
C    -1.59190   0.17349   1.03292
C    -1.58741  -0.75000   2.22219
C    -0.79869  -1.25659  -0.59892
C    -1.33203  -2.64731  -0.39084
C    -1.46925  -0.51098  -1.61724
N    -2.06100   0.06823  -2.43921
N     0.53257  -0.96447  -0.39126
C     1.35424  -1.95195   0.31237
H     3.39766   1.38086   1.62602
H     3.66357  -0.17363   0.80225
H     2.29097  -0.00231   1.92206
H     0.40457   0.88903  -1.31264
H     0.05179   1.31574   1.74698
H    -1.65930   2.31804  -0.65594
H    -1.49424   3.23032   0.86297
H    -0.07560   2.98812  -0.17208
H    -2.55462   0.29523   0.52546
H    -0.56247  -0.96733   2.56021
H    -2.09501  -1.70490   2.02391
H    -2.11741  -0.28048   3.07160
H    -0.96010  -3.34708  -1.15976
H    -1.06413  -3.04340   0.59683
H    -2.42806  -2.62301  -0.46230
H     1.12770  -2.95124  -0.07364
H     1.17192  -1.93694   1.39609
H     2.40918  -1.75310   0.11144
