21
Generated by autodE on: 2022-06-01. E = -702.345083 Ha
N     1.20878   2.58360  -1.72355
C     0.60483   1.88915  -1.01031
C    -0.18240   1.10299  -0.12978
C     0.05911  -0.14191   0.34042
C     1.21696  -1.03401   0.05190
F     1.77770  -1.48757   1.18965
F     0.82680  -2.12069  -0.64769
F     2.18382  -0.42802  -0.65567
C    -1.17150  -0.59381   1.09682
C    -2.26498  -0.83670   0.00133
C    -2.55109   0.59468  -0.53066
C    -1.59162   1.48434   0.32282
C    -1.64034   0.75563   1.68122
H    -1.01503  -1.43035   1.78724
H    -3.15471  -1.27918   0.47149
H    -1.91002  -1.52670  -0.77567
H    -3.59160   0.89502  -0.34176
H    -2.35563   0.70408  -1.60627
H    -1.80917   2.55781   0.30195
H    -2.65362   0.70939   2.10567
H    -0.94017   1.17189   2.41953
