47
Generated by autodE on: 2022-06-01. E = -1350.853324 Ha. Imaginary frequency = -315.5 cm-1
C    -2.68096  -3.89653   1.09902
O    -1.63825  -3.05422   0.59076
C    -2.03147  -1.95139  -0.07682
O    -3.20013  -1.66108  -0.25854
N    -0.97222  -1.19275  -0.53842
N     0.24196  -1.56245  -0.06876
C     1.33542  -0.94408  -0.53824
C     1.46150  -0.79574  -2.02315
C     2.54229  -0.89947   0.30601
C     3.77222  -0.52117  -0.26958
C     4.92671  -0.42866   0.50779
C     4.88210  -0.71725   1.87410
C     3.66834  -1.09328   2.45959
C     2.51019  -1.17553   1.68948
C     0.23735   1.15864   0.01055
C     1.02623   1.93135  -0.86375
N     1.74061   2.56573  -1.53872
C     0.27157   1.48478   1.51356
C    -0.47460   2.84198   1.66558
C    -1.94754   2.45797   1.33204
C    -1.86736   0.92725   1.04426
C    -0.79403   0.52271   2.06926
C    -1.10082   0.72399  -0.26946
C    -1.76241   1.14460  -1.56776
F    -1.11643   0.70092  -2.65914
F    -3.03400   0.73823  -1.66153
F    -1.78410   2.49597  -1.67678
H    -3.30018  -3.34934   1.82435
H    -2.17540  -4.73617   1.59010
H    -3.31430  -4.26317   0.27852
H     0.26674  -1.90309   0.89412
H     1.93247   0.14783  -2.31944
H     0.48848  -0.88234  -2.51086
H     2.10916  -1.61486  -2.37945
H     3.83190  -0.29364  -1.33285
H     5.86759  -0.13104   0.03979
H     5.78667  -0.64627   2.48218
H     3.61930  -1.31522   3.52775
H     1.58173  -1.44761   2.19227
H     1.27041   1.44826   1.96570
H    -0.06789   3.60789   0.98974
H    -0.38082   3.21671   2.69591
H    -2.36731   3.03052   0.49715
H    -2.60413   2.60876   2.20090
H    -2.82985   0.40813   1.08861
H    -1.09128   0.78334   3.09501
H    -0.52809  -0.53757   2.05772
