13
Generated by autodE on: 2022-10-22. E = -228.670317 Ha
C    -0.61248  -1.30716   0.10796
N    -0.40762   0.00043   0.00793
C    -1.58652   0.88571  -0.04117
N     0.72307   0.65812  -0.06031
C     1.86619  -0.20638  -0.01592
H    -1.63751  -1.66481   0.15253
H     0.22796  -1.99341   0.14254
H    -1.51891   1.60104   0.78803
H    -1.57010   1.43579  -0.99057
H    -2.50602   0.29735   0.03986
H     2.77628   0.40618  -0.07411
H     1.89170  -0.93987  -0.85231
H     1.91876  -0.81255   0.91572
