30
Generated by autodE on: 2022-10-22. E = -5801.869225 Ha
C    -3.47633   0.85650   3.31734
O    -2.70853   0.71247   2.10951
C    -3.35453   0.88000   0.96122
O    -4.53525   1.12720   0.86252
C    -2.41106   0.79677  -0.25320
O    -3.13987   0.45185  -1.40907
C    -3.63345  -0.88039  -1.44770
C    -1.24775  -0.07688  -0.04350
C    -0.09000  -0.43138  -0.10737
C     1.30763  -0.31080  -0.41387
Br    2.30084   0.09434   1.27508
Br    2.03528  -2.00747  -1.15612
C     1.50464   0.82925  -1.42832
C     0.77175   2.14548  -1.09574
C    -0.70528   2.30079  -1.55316
C    -1.81885   2.21742  -0.49041
H    -3.89491   1.87089   3.38185
H    -4.29025   0.11827   3.33992
H    -2.77630   0.67931   4.14135
H    -4.31463  -1.08979  -0.60577
H    -2.80877  -1.61425  -1.43268
H    -4.18792  -0.98580  -2.38978
H     2.58535   1.00637  -1.52758
H     1.14864   0.45065  -2.39977
H     1.35295   2.93193  -1.60004
H     0.86213   2.36084  -0.01838
H    -0.92914   1.59588  -2.37003
H    -0.79700   3.30268  -1.99878
H    -2.67727   2.83650  -0.79348
H    -1.45825   2.60250   0.47538
