47
Generated by autodE on: 2022-06-11. E = -8810.849597 Ha
C     3.68490  -0.25944  -3.11944
N     3.22150   0.22602  -1.83227
C     2.31357  -0.47286  -1.12604
O     2.00162  -1.63807  -1.32433
N     1.75619   0.27751  -0.01668
O     1.43900   1.59650  -0.40592
N     0.07438   1.48939  -0.95180
C     0.11338   1.37214  -2.38457
C     0.44923   2.51947  -3.11332
C     0.52940   2.45319  -4.50329
C     0.25084   1.25213  -5.16797
C    -0.09096   0.11297  -4.43467
C    -0.14781   0.16436  -3.03952
C    -0.50319   0.46567  -0.15459
C     0.48531  -0.20971   0.50015
C     0.48379  -1.01881   1.74922
Br    1.18490   0.23088   3.21424
Br    1.78980  -2.50831   1.69265
C    -0.84606  -1.55657   2.25362
C    -1.54273  -2.60794   1.38156
C    -1.67087  -2.31167  -0.11109
C    -2.50493  -1.09260  -0.52009
C    -2.00390   0.29888  -0.09179
Br   -2.92963   1.62667  -1.32278
C    -2.62981   0.82851   1.23934
C    -1.97208   2.01742   1.87882
O    -3.61414   0.28848   1.69768
H     3.92644  -1.32797  -3.05158
H     4.59103   0.28964  -3.40541
H     2.92199  -0.12170  -3.90457
H     3.25549   1.22765  -1.66559
H     0.64623   3.45137  -2.58061
H     0.79797   3.34551  -5.07296
H     0.30348   1.20575  -6.25789
H    -0.30138  -0.82843  -4.94674
H    -0.37881  -0.73499  -2.46950
H    -0.66846  -1.98765   3.24767
H    -1.50569  -0.70202   2.43682
H    -1.00633  -3.56259   1.49359
H    -2.54423  -2.75843   1.81631
H    -2.16252  -3.17897  -0.57974
H    -0.67361  -2.25407  -0.57308
H    -3.53320  -1.18684  -0.14343
H    -2.55945  -1.09654  -1.61637
H    -1.14477   1.65784   2.51384
H    -2.69628   2.53816   2.51845
H    -1.53873   2.70150   1.13850
