25
Generated by autodE on: 2022-06-11. E = -8185.619010 Ha
C     3.74139  -1.13045   0.23002
C     3.05157  -1.23663  -1.09652
O     3.43137  -1.95614  -1.99656
C     1.77014  -0.39623  -1.29062
Br    2.53537   1.40780  -1.86368
C     0.97069  -0.16984  -0.11248
C    -0.03614  -0.03894   0.55214
C    -1.45017   0.01479   0.79436
Br   -2.02412  -1.71830   1.61029
Br   -1.91418   1.47224   2.06358
C    -2.17359   0.23545  -0.54705
C    -1.71664  -0.67436  -1.70719
C    -0.50796  -0.21820  -2.57319
C     0.84374  -0.93525  -2.39308
H     3.16733  -1.72961   0.95801
H     4.75950  -1.53369   0.15842
H     3.75619  -0.09613   0.60170
H    -3.25164   0.11511  -0.36683
H    -2.00743   1.28870  -0.82393
H    -1.55668  -1.70047  -1.33749
H    -2.58648  -0.73930  -2.37750
H    -0.36541   0.87123  -2.48017
H    -0.79005  -0.38556  -3.62311
H     1.41218  -0.92441  -3.33321
H     0.67202  -1.99716  -2.14669
