22
Generated by autodE on: 2022-06-11. E = -625.121779 Ha
C     4.56268  -1.27952  -0.06395
N     3.13334  -1.07779   0.00372
C     2.53839   0.11728  -0.22405
O     3.13591   1.15707  -0.51333
N     1.14256  -0.01499  -0.08093
O     0.61865   1.19075  -0.31248
N    -0.63619   1.45034  -0.27389
C    -1.59630   0.50261   0.01164
C    -1.46808  -0.88262   0.30966
C    -2.61414  -1.63242   0.56514
C    -3.88391  -1.04750   0.53377
C    -4.02207   0.31794   0.24082
C    -2.89714   1.08266  -0.01664
H     5.04249  -0.32888  -0.32489
H     4.82392  -2.02837  -0.82906
H     4.96331  -1.62307   0.90350
H     2.53494  -1.86375   0.23799
H    -0.49008  -1.34474   0.33661
H    -2.51120  -2.69533   0.79357
H    -4.76909  -1.65386   0.73803
H    -5.01193   0.77762   0.21554
H    -2.97873   2.14592  -0.24699
