47
Generated by autodE on: 2022-06-11. E = -8810.706588 Ha. Imaginary frequency = -242.3 cm-1
C     4.33448   1.27555  -2.32388
N     3.38852   1.60296  -1.27693
C     2.94846   0.64009  -0.42205
O     3.43640  -0.48984  -0.39775
N     1.98759   1.01376   0.52720
O     1.26280   2.13031   0.25852
N     0.36159   2.25328  -0.68699
C     0.38727   1.59527  -1.91186
C    -0.20309   2.39432  -2.92312
C    -0.31462   1.92686  -4.22618
C     0.11913   0.63401  -4.53650
C     0.66706  -0.18217  -3.53628
C     0.81107   0.28124  -2.23556
C    -0.90012   0.55381   0.62033
C     0.02999  -0.21352   0.90733
C     0.41908  -1.50187   1.47209
Br    1.93932  -1.33087   2.73491
Br    0.95856  -2.74342   0.00244
C    -0.75008  -2.13030   2.25694
C    -1.97506  -2.62988   1.47725
C    -2.72395  -1.66735   0.54508
C    -3.12099  -0.32265   1.17660
C    -2.31826   0.88459   0.66484
Br   -2.98229   1.31314  -1.21226
C    -2.67870   2.17554   1.45030
C    -1.67957   3.28803   1.49276
O    -3.75243   2.22689   2.01484
H     3.91466   0.54004  -3.03126
H     5.26343   0.85597  -1.90803
H     4.57963   2.19207  -2.87499
H     2.97875   2.52912  -1.26441
H    -0.55459   3.39010  -2.65262
H    -0.75167   2.56351  -4.99762
H     0.02176   0.25386  -5.55571
H     0.98330  -1.19937  -3.77564
H     1.21004  -0.39673  -1.49017
H    -0.34358  -2.98089   2.82180
H    -1.04897  -1.37304   2.99895
H    -1.68780  -3.51979   0.89681
H    -2.67698  -2.98481   2.25068
H    -3.63516  -2.18588   0.21083
H    -2.13543  -1.49570  -0.36922
H    -2.96443  -0.34705   2.26757
H    -4.18516  -0.09978   1.02995
H    -0.77671   2.94323   2.02323
H    -2.11356   4.15139   2.01215
H    -1.35525   3.55778   0.47869
