53
Generated by autodE on: 2022-06-22. E = -1189.714681 Ha
C     5.41714  -0.66345   0.44832
C     4.09901  -0.89869   0.60529
C     3.58634  -2.13307   1.29971
C     3.12137   0.06914   0.09521
C     1.78818  -0.06756   0.19255
C     0.81146   0.94165  -0.33361
C    -0.16529   1.47519   0.75885
C     0.35283   1.24971   2.12472
N     0.73788   1.09955   3.20843
C    -0.37026   3.01582   0.64940
O     0.60761   3.75584   0.55514
N    -1.63885   3.42278   0.72268
C    -2.00280   4.82278   0.61162
O    -1.39094   0.77841   0.60195
C    -1.34029  -0.16771  -0.48462
C    -2.71691  -0.16804  -1.18069
C    -3.87645   0.43718  -0.44920
O    -2.83295  -0.68527  -2.27698
C    -1.15616  -1.58530   0.07890
C    -1.15232  -2.70577  -0.76809
C    -0.96915  -3.98913  -0.24999
C    -0.80242  -4.17967   1.12522
C    -0.84245  -3.07470   1.97835
C    -1.02785  -1.78977   1.46044
C    -0.18567   0.39039  -1.40261
C     0.48968  -0.61047  -2.33618
C    -0.71259   1.56682  -2.24795
H     5.77442   0.23927  -0.05657
H     6.17045  -1.36405   0.81943
H     4.41326  -2.77332   1.63750
H     2.97155  -1.86599   2.17531
H     2.93813  -2.72482   0.63209
H     3.53071   0.96015  -0.39497
H     1.37003  -0.95050   0.68008
H     1.37110   1.78961  -0.74536
H    -2.35915   2.70714   0.73937
H    -3.06966   4.93144   0.84045
H    -1.41956   5.42904   1.32006
H    -1.81500   5.20523  -0.40477
H    -4.81304   0.13423  -0.93477
H    -3.78968   1.53541  -0.49153
H    -3.87064   0.15023   0.61185
H    -1.30618  -2.57999  -1.83785
H    -0.96054  -4.84574  -0.92798
H    -0.65552  -5.18413   1.52885
H    -0.73243  -3.20795   3.05709
H    -1.06638  -0.94125   2.14081
H     0.92044  -1.46817  -1.80673
H     1.30894  -0.10043  -2.86611
H    -0.22273  -0.97874  -3.08682
H     0.13562   2.13421  -2.65701
H    -1.31442   1.20207  -3.09045
H    -1.33789   2.25988  -1.66916
