23
Generated by autodE on: 2022-06-22. E = -351.521384 Ha
C    -3.71007  -0.72458   0.08850
C    -2.58582   0.01498  -0.03354
C    -2.64778   1.49446  -0.31510
C    -1.27640  -0.61895   0.10658
C    -0.07802   0.00853   0.00201
C     1.19349  -0.67035   0.14755
C     2.42967  -0.11879   0.05146
C     2.69111   1.33348  -0.23086
C     3.66250  -0.95956   0.22739
H    -3.66158  -1.79868   0.29272
H    -4.70238  -0.27619  -0.01248
H    -3.68753   1.84109  -0.39759
H    -2.12426   1.74266  -1.25336
H    -2.15237   2.07200   0.48304
H    -1.28571  -1.69609   0.31250
H    -0.06013   1.08232  -0.20353
H     1.13494  -1.74541   0.35674
H     3.30423   1.44058  -1.14315
H     3.28133   1.78168   0.58796
H     1.77853   1.92934  -0.36049
H     4.29772  -0.91696  -0.67569
H     4.28434  -0.57434   1.05549
H     3.42168  -2.01273   0.43384
