30
Generated by autodE on: 2022-06-22. E = -838.112795 Ha
C     5.13185   0.68275  -0.19101
N     3.80773   0.12189  -0.37215
C     2.71136   0.76146   0.08523
O     2.76591   1.84017   0.69091
C     1.41360   0.09746  -0.16498
C     1.26768  -1.09748  -0.88698
N     1.22930  -2.08648  -1.51049
O     0.38626   0.81309   0.26914
C    -0.90505   0.69715   0.31471
C    -1.56216   1.94954   0.76921
C    -0.67667   3.13335   1.04819
O    -2.78118   1.98716   0.88847
C    -1.63366  -0.53084   0.02036
C    -1.21285  -1.75879   0.57377
C    -1.94742  -2.91914   0.33986
C    -3.09773  -2.87418  -0.45462
C    -3.52410  -1.65923  -1.00355
C    -2.80705  -0.48988  -0.76099
H     5.34334   0.86156   0.87476
H     5.87159  -0.02446  -0.58464
H     5.24130   1.64209  -0.72271
H     3.71122  -0.74576  -0.88982
H    -1.28239   3.93811   1.48276
H    -0.21575   3.48084   0.10918
H     0.14938   2.86338   1.72210
H    -0.32771  -1.79713   1.21101
H    -1.61998  -3.86333   0.77984
H    -3.66552  -3.78788  -0.64450
H    -4.42122  -1.62429  -1.62533
H    -3.13718   0.45615  -1.18936
