30
Generated by autodE on: 2022-07-27. E = -838.114372 Ha
C    -0.54113   4.84839   0.37317
N    -0.43545   3.41417   0.19333
C     0.60999   2.72399   0.68994
O     1.53453   3.25553   1.32549
C     0.62953   1.27013   0.45701
C     1.73419   0.51690   0.89290
N     2.67650  -0.07310   1.25238
O    -0.36825   0.76015  -0.25380
C    -0.73080  -0.42264  -0.65835
C    -1.86121  -0.37809  -1.61840
C    -2.42210   0.97000  -1.98146
O    -2.30280  -1.42407  -2.08044
C    -0.14330  -1.66779  -0.17769
C     0.18467  -2.69595  -1.08540
C     0.69488  -3.90410  -0.61591
C     0.86187  -4.11222   0.75811
C     0.52022  -3.10463   1.66604
C     0.02740  -1.88547   1.20604
H    -1.45359   5.19892  -0.12392
H    -0.59427   5.11672   1.44053
H     0.32388   5.37233  -0.06361
H    -1.16002   2.92529  -0.32021
H    -3.21937   0.83603  -2.72271
H    -1.63640   1.62642  -2.38545
H    -2.83159   1.46249  -1.08424
H     0.05509  -2.53317  -2.15506
H     0.96428  -4.68941  -1.32535
H     1.25700  -5.06334   1.12203
H     0.63887  -3.26865   2.73906
H    -0.25303  -1.11042   1.92125
