30
Generated by autodE on: 2022-06-05. E = -837.400360 Ha
C    -2.02888   3.76318   0.04996
N    -1.98623   2.32800  -0.11944
C    -0.83713   1.63653   0.05147
O     0.23474   2.22569   0.29773
C    -0.93517   0.16215  -0.02153
C    -2.16216  -0.53316  -0.32806
O    -3.28448  -0.02164  -0.39501
O    -1.98128  -1.84261  -0.61427
C    -3.15809  -2.61686  -0.85962
N     0.22254  -0.56927   0.24922
C     0.14217  -1.72313   1.17863
C     1.38393  -0.14152  -0.19207
C     2.69870  -0.64531   0.23475
O     2.93422  -1.52307   1.04579
O     3.65218   0.01885  -0.43467
C     5.00750  -0.35538  -0.15544
H    -3.00856   4.13126  -0.28093
H    -1.24674   4.25286  -0.55008
H    -1.88009   4.06695   1.10109
H    -2.84331   1.78475  -0.21528
H    -3.69262  -2.24589  -1.74646
H    -3.83459  -2.58954   0.00758
H    -2.81231  -3.64305  -1.03300
H     0.74944  -1.49107   2.06029
H    -0.89715  -1.86529   1.47418
H     0.53563  -2.62409   0.69545
H     1.38166   0.64562  -0.93907
H     5.24184  -0.18634   0.90578
H     5.17156  -1.41512  -0.40009
H     5.63371   0.28271  -0.78922
