24
Generated by autodE on: 2022-06-16. E = -555.218274 Ha
C     3.15129  -0.91416  -1.04315
O     2.19645  -0.67575   0.00384
C     1.23302   0.20668  -0.24890
O     1.16373   0.85261  -1.27726
C     0.23856   0.28810   0.89021
N    -0.45806   1.58406   0.86439
O    -1.85271   1.28509   1.04751
C    -2.10696   0.02159   0.40929
C    -2.34831   0.18101  -1.08558
C    -0.87760  -0.81255   0.81205
C    -0.57675  -2.02998  -0.05268
H     3.69002   0.01204  -1.28820
H     2.64388  -1.29384  -1.94162
H     3.84567  -1.66626  -0.65206
H     0.80136   0.16173   1.82491
H    -0.38295   1.93010  -0.09858
H    -3.01477  -0.36820   0.89455
H    -3.16352   0.90203  -1.25078
H    -1.45091   0.53960  -1.61108
H    -2.64454  -0.77855  -1.53481
H    -1.04343  -1.14927   1.84513
H    -1.44095  -2.71210  -0.05822
H    -0.35787  -1.75620  -1.09585
H     0.28770  -2.58486   0.33887
