12
Generated by autodE on: 2022-06-16. E = -157.299006 Ha
C    -1.62723  -0.30416  -0.28329
C    -0.56160   0.73000  -0.07484
C     0.74762   0.52483   0.14010
C     1.46518  -0.78904   0.22644
H    -1.24015  -1.33266  -0.25147
H    -2.41689  -0.21392   0.48356
H    -2.12852  -0.15954  -1.25666
H    -0.90921   1.77051  -0.10519
H     1.38088   1.41161   0.27053
H     2.25899  -0.85365  -0.53869
H     1.97168  -0.89558   1.20202
H     0.79759  -1.65273   0.09568
