12
Generated by autodE on: 2022-06-16. E = -397.879888 Ha
C    -2.84571   0.36791  -0.18266
O    -1.54968   0.64629   0.36822
C    -0.52429  -0.04019  -0.14145
O    -0.62744  -0.87457  -1.02694
C     0.73948   0.33511   0.49607
N     1.82412  -0.26748   0.07875
O     2.99834  -0.10067   0.48106
H    -3.10796  -0.68952  -0.03317
H    -3.54759   1.01320   0.35767
H    -2.86409   0.60121  -1.25720
H     0.81505   1.08022   1.28744
H     1.66613  -0.96487  -0.67804
