24
Generated by autodE on: 2022-06-16. E = -555.157416 Ha. Imaginary frequency = -447.5 cm-1
C     3.39894  -1.13215  -0.31705
O     2.30439  -0.60476   0.44738
C     1.48426   0.23932  -0.18532
O     1.63478   0.59799  -1.34095
C     0.34022   0.61926   0.66080
N    -0.46906   1.58420   0.19283
O    -1.61544   1.70748   0.77814
C    -2.27910  -0.30584   0.70552
C    -3.25504  -0.10411  -0.41485
C    -1.08305  -1.01729   0.52933
C    -0.74761  -1.66078  -0.79533
H     4.06338  -0.32082  -0.64746
H     3.02486  -1.67963  -1.19424
H     3.93564  -1.81204   0.35434
H     0.42781   0.52627   1.74213
H    -0.44117   1.74065  -0.82482
H    -2.66331  -0.20884   1.72327
H    -4.03971   0.61760  -0.14669
H    -2.75030   0.25400  -1.32670
H    -3.74926  -1.05739  -0.68072
H    -0.67001  -1.50364   1.41739
H    -1.49202  -2.43073  -1.06546
H    -0.73272  -0.92796  -1.61784
H     0.23656  -2.15081  -0.76281
