65
Generated by autodE on: 2022-06-15. E = -1797.633174 Ha
C   -11.17512   1.81767   1.55691
N    -9.94514   1.15047   1.17388
C    -9.73874  -0.13608   1.44019
O   -10.58309  -0.84521   2.01020
C    -8.42634  -0.82430   0.93942
C    -7.36048   0.10200   0.32039
O    -7.55909   1.21745  -0.12617
O    -6.19582  -0.51963   0.22484
C    -5.11637   0.18253  -0.41041
C    -7.88236  -1.73026   2.05379
C    -8.08063  -3.01889   1.69660
C    -8.60251  -3.13434   0.25803
C    -7.49060  -3.66210  -0.70266
C    -7.80701  -3.80986  -2.16968
O    -6.34893  -3.80175  -0.30536
C    -9.90425  -3.96996   0.15339
O    -9.92900  -5.06094  -0.42437
N   -10.97134  -3.40914   0.73512
C   -12.24514  -4.09335   0.81670
N    -8.78367  -1.74102  -0.13199
C    -9.72695  -1.31560  -1.14727
C    -7.88332  -4.30749   2.48737
F    -7.69928  -5.34395   1.56353
C    -9.20951  -4.72100   3.24884
F    -8.95127  -5.35331   4.40482
F    -9.95308  -5.55898   2.51554
F    -9.97464  -3.66211   3.55067
C    -6.70395  -4.38648   3.45298
C    -5.33682  -4.01344   2.89071
C    -5.10759  -2.52059   2.61702
C    -5.79280  -1.57255   3.60783
C    -7.27896  -1.10296   3.32761
C    -7.21248   0.43853   3.22180
C    -8.18771  -1.37997   4.54841
H   -11.12653   2.86301   1.22945
H   -12.04792   1.33473   1.09009
H   -11.31433   1.79031   2.64891
H    -9.21167   1.64523   0.66554
H    -4.90332   1.11707   0.12748
H    -5.37124   0.40518  -1.45601
H    -4.25451  -0.49200  -0.36170
H    -7.63092  -2.83603  -2.65643
H    -7.10648  -4.53354  -2.60877
H    -8.84054  -4.11573  -2.35947
H   -10.84389  -2.53255   1.25410
H   -13.00273  -3.39092   1.18685
H   -12.19599  -4.95629   1.50111
H   -12.55387  -4.46071  -0.17363
H    -9.79784  -2.07187  -1.93701
H   -10.74620  -1.14537  -0.75598
H    -9.37577  -0.38348  -1.61504
H    -6.67869  -5.43166   3.79106
H    -6.92190  -3.79021   4.34614
H    -4.60598  -4.34890   3.64478
H    -5.13504  -4.60212   1.98298
H    -4.02245  -2.33540   2.66628
H    -5.40608  -2.26550   1.59469
H    -5.18445  -0.65907   3.65811
H    -5.74741  -2.00521   4.62011
H    -6.51875   0.78147   2.44288
H    -6.82727   0.82927   4.17442
H    -8.19332   0.90244   3.06130
H    -9.20990  -1.02368   4.35696
H    -7.79030  -0.83755   5.41980
H    -8.24555  -2.43908   4.82075
