36
Generated by autodE on: 2022-06-15. E = -970.255071 Ha
C     1.73585  -4.29594   0.25951
N     1.11520  -2.99704   0.06639
C     1.61807  -1.88690   0.61686
O     2.60199  -1.84932   1.35761
C     0.88174  -0.61313   0.26038
C     1.35458   0.02930  -0.99782
O     1.95905  -0.61259  -1.83606
O     1.16370   1.34054  -1.05227
C     1.58500   2.00402  -2.25399
N    -0.01412  -0.11265   1.08319
C    -0.14116  -0.72256   2.42777
C    -0.99114   0.78707   0.64449
C    -1.39046   1.89951   1.45591
C    -0.56099   2.29887   2.66143
O    -2.37919   2.61820   1.17560
C    -1.57546   0.46702  -0.67930
O    -1.14220  -0.46550  -1.39402
N    -2.62701   1.21088  -1.06186
C    -3.32798   0.96005  -2.30105
H     2.70094  -4.36100  -0.26868
H     1.91482  -4.47791   1.32890
H     1.06407  -5.07051  -0.12891
H     0.33946  -2.90047  -0.58368
H     2.66808   1.88664  -2.39980
H     1.32938   3.06053  -2.11669
H     1.04713   1.58919  -3.11844
H    -0.38260  -1.78703   2.30513
H     0.80215  -0.61730   2.97486
H    -0.96369  -0.24353   2.96172
H     0.45781   1.89252   2.66598
H    -1.07273   1.98535   3.58582
H    -0.50953   3.39728   2.67600
H    -2.93980   1.91522  -0.38674
H    -3.99707   1.80471  -2.50961
H    -2.61846   0.85385  -3.13591
H    -3.93414   0.03862  -2.25902
