65
Generated by autodE on: 2022-06-15. E = -1797.529529 Ha. Imaginary frequency = -246.8 cm-1
C   -11.19576   0.73557   3.06433
N   -10.36670  -0.11701   2.23908
C    -9.65087   0.37532   1.21347
O    -9.68862   1.56960   0.89061
C    -8.78885  -0.62237   0.46633
C    -7.79602   0.05037  -0.44076
O    -7.83000  -0.03822  -1.65293
O    -6.95843   0.86076   0.20165
C    -6.04923   1.61884  -0.60412
C    -7.89475  -1.80908   2.19597
C    -8.34732  -2.97236   2.01002
C    -8.84677  -2.85741  -0.34853
C    -7.36711  -3.05668  -0.44264
C    -6.90588  -4.48421  -0.60363
O    -6.55098  -2.14355  -0.41706
C    -9.62833  -3.85598  -1.19865
O    -9.62252  -3.68049  -2.42324
N   -10.26535  -4.85940  -0.59796
C   -10.98248  -5.86533  -1.35908
N    -9.46737  -1.67225  -0.13059
C   -10.94092  -1.65732  -0.22356
C    -8.72789  -4.20680   2.71592
F    -8.85390  -5.29172   1.80739
C   -10.16232  -4.05996   3.27889
F   -10.52114  -5.13636   3.98703
F   -11.06620  -3.91465   2.29246
F   -10.26554  -2.98709   4.07906
C    -7.76679  -4.67449   3.82439
C    -6.30993  -4.23662   3.64797
C    -5.93918  -3.02044   4.50563
C    -6.84137  -1.78273   4.44043
C    -6.96570  -1.01918   3.08519
C    -5.57874  -0.93516   2.41310
C    -7.46053   0.39928   3.40836
H   -10.59705   1.52159   3.55382
H   -11.97714   1.22750   2.46417
H   -11.67392   0.11949   3.83595
H   -10.19142  -1.07008   2.54002
H    -5.44429   2.20617   0.09622
H    -6.60039   2.28539  -1.28323
H    -5.40707   0.94656  -1.19095
H    -7.13502  -4.82684  -1.62594
H    -7.40501  -5.15981   0.10036
H    -5.81931  -4.51900  -0.45555
H   -10.15802  -4.96905   0.40434
H   -11.77295  -5.40383  -1.97043
H   -11.44052  -6.57500  -0.65982
H   -10.30434  -6.41255  -2.03340
H   -11.23113  -2.10214  -1.18207
H   -11.29530  -0.62326  -0.22678
H   -11.40134  -2.21617   0.60010
H    -7.85993  -5.76948   3.84238
H    -8.14381  -4.31878   4.79460
H    -5.65473  -5.07022   3.94412
H    -6.09938  -4.05025   2.58318
H    -5.93883  -3.34663   5.56059
H    -4.89953  -2.73281   4.28471
H    -6.43728  -1.05824   5.16624
H    -7.85580  -2.02584   4.79367
H    -5.21692  -1.92304   2.09877
H    -4.85918  -0.51563   3.13393
H    -5.60556  -0.28712   1.53228
H    -7.60589   1.00317   2.50684
H    -6.70373   0.90454   4.02755
H    -8.40076   0.37633   3.97688
