45
Generated by autodE on: 2022-06-21. E = -1068.873031 Ha
C    -1.37354   1.38473  -2.28713
N    -1.27936   0.12585  -1.56041
C    -2.08276  -0.92056  -1.98119
C    -2.41912  -1.98708  -1.22811
C    -1.96895  -2.10455   0.19737
C    -1.74986  -0.69097   0.79163
C    -3.10540  -0.10254   1.19073
N    -3.51705  -0.38593   2.43513
O    -3.76630   0.55608   0.38518
N    -0.86978  -0.78685   1.97765
N     0.27290  -0.36270   1.77745
C     0.49571   0.10509   0.35317
C     1.17784   1.46712   0.36334
C     1.96883   1.87160  -0.72154
C     2.52129   3.15415  -0.75870
C     2.29789   4.04762   0.29397
C     1.51117   3.65103   1.37907
C     0.94954   2.37114   1.41022
C     1.41381  -0.96727  -0.23708
C     2.68533  -1.10065   0.35415
C     3.58789  -2.06698  -0.08718
C     3.23970  -2.92335  -1.13776
C     1.98159  -2.80174  -1.72840
C     1.07130  -1.83647  -1.27998
C    -0.98050   0.25403  -0.15016
H    -1.45670   1.18349  -3.36429
H    -2.25250   1.97785  -1.97026
H    -0.46959   1.98644  -2.12189
H    -2.41800  -0.83598  -3.01793
H    -3.03415  -2.77591  -1.66302
H    -2.70052  -2.65231   0.80941
H    -1.01714  -2.65837   0.28145
H    -2.90935  -0.88111   3.07863
H    -4.41431  -0.03508   2.75649
H     2.15116   1.17915  -1.54504
H     3.13146   3.45522  -1.61361
H     2.73474   5.04865   0.26796
H     1.32994   4.34087   2.20676
H     0.32662   2.07693   2.25688
H     2.96951  -0.43443   1.17019
H     4.56752  -2.15049   0.38936
H     3.94542  -3.67892  -1.49094
H     1.69381  -3.46353  -2.54882
H     0.10042  -1.77762  -1.76027
H    -1.26685   1.27218   0.14883
