45
Generated by autodE on: 2022-06-21. E = -1068.829064 Ha. Imaginary frequency = -454.2 cm-1
C     0.16060  -0.83029  -2.84772
N    -0.85952  -0.95886  -1.82157
C    -1.61675  -2.12481  -1.76245
C    -2.70640  -2.25013  -0.98686
C    -3.22063  -1.10733  -0.15604
C    -2.18240   0.00058  -0.01344
C    -2.62229   1.32053   0.52237
N    -3.78669   1.32323   1.20958
O    -1.96585   2.36459   0.36953
N    -1.37967  -0.61522   1.76191
N    -0.21833  -0.53367   1.64044
C     0.61874  -0.08590   0.60780
C     1.08161   1.30939   0.81137
C     1.58215   2.05475  -0.27597
C     1.94979   3.39108  -0.11738
C     1.82171   4.02101   1.12498
C     1.32043   3.29477   2.20875
C     0.95722   1.95565   2.05613
C     1.50745  -1.13546   0.06223
C     2.80150  -0.85958  -0.42019
C     3.56487  -1.85698  -1.02763
C     3.06281  -3.15647  -1.15560
C     1.79315  -3.45297  -0.64889
C     1.02552  -2.45652  -0.04781
C    -1.06785   0.05193  -0.90344
H    -0.28792  -0.67751  -3.84503
H     0.79161  -1.73130  -2.88435
H     0.80282   0.02804  -2.62229
H    -1.25467  -2.93583  -2.39774
H    -3.25182  -3.19566  -0.98254
H    -4.14838  -0.69768  -0.60461
H    -3.52196  -1.47189   0.84371
H    -4.29071   0.47164   1.42309
H    -4.08820   2.18731   1.64754
H     1.66231   1.59273  -1.26017
H     2.33006   3.94713  -0.97769
H     2.10686   5.06858   1.24533
H     1.21382   3.77133   3.18633
H     0.57719   1.40308   2.91703
H     3.21833   0.14209  -0.32241
H     4.56412  -1.61678  -1.39881
H     3.66097  -3.93430  -1.63583
H     1.39245  -4.46628  -0.72929
H     0.03561  -2.70580   0.33451
H    -0.68605   1.02919  -1.19003
