37
Generated by autodE on: 2022-05-31. E = -3491.345821 Ha
C    -1.17454   4.02424  -1.42734
C    -1.58346   2.79447  -0.66678
O    -2.43082   2.82701   0.20916
C    -0.94999   1.46391  -1.09458
N     0.46628   1.58866  -1.46555
C     1.22065   1.26416  -0.24586
C     1.22734   2.47078   0.61418
N     1.21947   3.41157   1.29334
C     2.67557   0.87723  -0.50442
C     3.48138   0.51569   0.58695
C     4.80646   0.12803   0.38980
C     5.34508   0.10016  -0.90184
C     4.55000   0.46785  -1.98856
C     3.22058   0.85972  -1.79240
C     0.38950   0.16241   0.50507
C     0.68096  -1.29743   0.02992
C    -0.14512  -2.20369   0.93502
C    -1.39805  -2.03684   0.49810
Br   -3.01215  -2.66523   1.22352
C    -1.33109  -1.04017  -0.65446
O    -0.04798  -1.35651  -1.21219
C    -1.06332   0.35897  -0.02646
H    -0.14899   4.30844  -1.14573
H    -1.16494   3.82613  -2.50986
H    -1.85845   4.85019  -1.19187
H    -1.51723   1.19702  -2.00260
H     0.66825   0.84514  -2.13341
H     3.06720   0.53285   1.59782
H     5.42097  -0.15434   1.24763
H     6.38244  -0.20470  -1.05765
H     4.96208   0.45567  -3.00014
H     2.62111   1.15480  -2.65354
H     0.49546   0.25450   1.59114
H     1.73247  -1.56074  -0.11475
H     0.22325  -2.74754   1.80339
H    -2.12441  -1.08221  -1.40873
H    -1.80041   0.61697   0.74096
