13
Generated by autodE on: 2022-05-31. E = -2881.097879 Ha
Br    1.68123   0.25902  -0.58331
C    -0.04171   0.25422   0.15705
C    -0.98476   1.19896   0.14853
C    -2.20401   0.49495   0.79212
C    -2.69848  -0.57991  -0.20648
C    -1.74695  -1.51727  -0.20499
C    -0.68927  -0.99928   0.79896
O    -1.53648  -0.34805   1.75827
H    -0.97477   2.19961  -0.27926
H    -2.95799   1.13867   1.25775
H    -3.60686  -0.50832  -0.80375
H    -1.65668  -2.42666  -0.79783
H    -0.01311  -1.72841   1.25772
