30
Generated by autodE on: 2022-10-07. E = -1153.376197 Ha
C    -3.31666   3.13859   0.94034
O    -2.12313   2.35569   0.83618
C    -2.27559   1.11821   0.33598
O    -3.35379   0.64617  -0.00767
N    -1.11738   0.41294   0.27653
N     0.14799   1.02488   0.45065
C     0.94024   0.43905  -0.63993
C     0.63678   1.14913  -1.89437
N     0.37622   1.69526  -2.88380
C     2.45559   0.51740  -0.41076
O     3.23628  -0.11796  -1.08373
O     2.78645   1.40027   0.51882
C     4.18529   1.50363   0.83655
C     0.44437  -1.03451  -0.72681
C     1.13011  -1.89737   0.36850
O     1.05767  -3.13505   0.21590
O     1.69478  -1.28191   1.31471
C    -1.07146  -0.84496  -0.48711
C    -1.74825  -2.04534   0.22629
O    -2.22927  -2.91670  -0.53849
O    -1.73423  -2.05279   1.48004
H    -3.77553   3.28781  -0.04824
H    -3.00672   4.10412   1.35797
H    -4.04439   2.65642   1.60963
H     0.56312   0.62498   1.29947
H     4.54837   0.54298   1.22881
H     4.26230   2.28324   1.60247
H     4.76141   1.78336  -0.05644
H     0.62910  -1.48747  -1.70704
H    -1.58441  -0.69801  -1.44911
