20
Generated by autodE on: 2022-10-07. E = -698.280027 Ha
C     4.79273  -0.25523  -0.12371
O     3.55152   0.00276   0.55082
C     2.44784  -0.14348  -0.16836
O     2.40876  -0.47230  -1.34285
N     1.32974   0.13576   0.62887
N     0.25078  -0.01854  -0.05616
C    -0.99219   0.15406   0.36491
C    -1.25674   0.55198   1.69736
N    -1.48669   0.87891   2.79027
C    -2.05280  -0.09891  -0.63462
O    -1.80589  -0.43562  -1.77668
O    -3.26167   0.08666  -0.12464
C    -4.37865  -0.12907  -1.00613
H     5.57849  -0.09601   0.62319
H     4.92029   0.43920  -0.96658
H     4.81934  -1.29101  -0.49143
H     0.34384  -0.31238  -1.05491
H    -5.27356   0.07117  -0.40719
H    -4.38074  -1.16735  -1.36635
H    -4.32494   0.56106  -1.85987
