10
Generated by autodE on: 2022-10-07. E = -455.045302 Ha
O     2.39918  -0.11413  -1.15906
C     1.55106  -0.24194  -0.23278
O     1.28555  -1.30435   0.38784
C     0.83661   1.03585   0.16343
C    -0.48546   1.21126   0.32402
C    -1.56630   0.15517   0.21088
O    -2.46596   0.21722   1.09526
O    -1.51167  -0.67905  -0.73084
H     1.49757   1.90432   0.28028
H    -0.85085   2.19975   0.62949
