26
Generated by autodE on: 2022-06-09. E = -557.206144 Ha
C     4.60587   0.54839  -0.40697
C     3.08839   0.57235  -0.35219
O     2.48999   1.53740  -0.90989
C     2.47605  -0.49958   0.32146
N     1.10410  -0.69777   0.45329
C     0.73191  -1.94884   1.13961
C     0.18810   0.15256   0.01848
C    -1.25813   0.02992   0.01417
C    -2.01161  -1.16820   0.02963
C    -3.40515  -1.13044  -0.01605
C    -4.08713   0.08885  -0.08035
C    -3.35814   1.28315  -0.12040
C    -1.96720   1.25322  -0.08500
H     5.00057   1.47202   0.04828
H     4.92951   0.54895  -1.46126
H     5.04977  -0.31884   0.10177
H     3.08292  -1.27681   0.77619
H     1.55514  -2.24079   1.79940
H     0.56007  -2.74722   0.40546
H    -0.17039  -1.79249   1.73908
H     0.61243   1.07212  -0.38396
H    -1.51929  -2.13769   0.04044
H    -3.96456  -2.06882  -0.00974
H    -5.17883   0.10784  -0.11212
H    -3.87781   2.24191  -0.18463
H    -1.40191   2.18730  -0.12486
