56
Generated by autodE on: 2022-06-07. E = -1909.177090 Ha
C    -8.63207  -5.72924   0.38043
N    -8.01625  -4.88517  -0.62415
C    -7.75029  -3.59419  -0.40815
O    -7.96256  -3.00466   0.65883
C    -7.19191  -2.84485  -1.58828
N    -7.48847  -3.20704  -2.78447
C    -6.97318  -2.17425  -3.69118
C    -8.27651  -1.66567  -4.34344
O    -8.91285  -0.73617  -3.89620
O    -8.65860  -2.41493  -5.36195
C    -9.90722  -2.06822  -5.99086
C    -5.88358  -2.73784  -4.61376
C    -4.86733  -3.50005  -4.01441
C    -3.78433  -3.95118  -4.76637
C    -3.69786  -3.64276  -6.12862
C    -4.70400  -2.88416  -6.72780
C    -5.79380  -2.43051  -5.97661
C    -6.33789  -1.12270  -2.78281
C    -6.38918  -1.58663  -1.51392
C    -5.84158  -1.07765  -0.20391
Cl   -4.14486  -0.33046  -0.42639
C    -5.38431  -2.28192   0.67648
C    -5.29529  -2.09190   2.15865
O    -5.03966  -3.31077   0.12348
C    -6.78449  -0.06505   0.45145
C    -6.84424   1.35465  -0.12388
C    -7.09755   1.55872  -1.62603
C    -5.84012   1.45757  -2.50661
C    -5.70348   0.14081  -3.37052
C    -6.31271   0.46395  -4.68268
N    -6.76227   0.79633  -5.69707
C    -4.27612  -0.12698  -3.65813
N    -3.16160  -0.32597  -3.90524
H    -8.22739  -5.48196   1.37116
H    -9.72608  -5.59446   0.41076
H    -8.41192  -6.77953   0.15269
H    -7.87884  -5.24304  -1.56504
H    -9.86016  -1.03946  -6.37384
H   -10.73095  -2.16010  -5.26934
H   -10.03392  -2.78015  -6.81354
H    -4.90646  -3.71959  -2.94570
H    -3.00045  -4.53961  -4.28447
H    -2.84672  -3.99113  -6.71808
H    -4.64691  -2.63558  -7.78989
H    -6.56086  -1.83480  -6.46607
H    -6.31365  -2.06119   2.57557
H    -4.74904  -2.93714   2.59562
H    -4.79903  -1.14482   2.41395
H    -7.77884  -0.53316   0.40877
H    -6.52494   0.02314   1.51467
H    -5.92060   1.89083   0.14852
H    -7.65417   1.85757   0.42769
H    -7.48438   2.58106  -1.74787
H    -7.89440   0.89357  -1.99255
H    -5.80714   2.28732  -3.22423
H    -4.93805   1.54911  -1.89519
