27
Generated by autodE on: 2022-06-07. E = -1109.032972 Ha
C     3.10689   1.12744   0.23113
C     2.48618   0.34909  -0.88802
O     2.79159   0.48194  -2.05288
C     1.38489  -0.68360  -0.50306
Cl    2.37084  -2.12031   0.12212
C     0.48113  -0.18840   0.51185
C    -0.51912   0.30866   0.97786
C    -1.91023   0.77541   0.95863
C    -2.11303   2.00538   1.75058
N    -2.26711   2.98973   2.34140
C    -2.80323  -0.28080   1.48395
N    -3.50748  -1.12189   1.85616
C    -2.25319   1.06121  -0.55943
C    -1.90870  -0.08214  -1.53096
C    -0.50245  -0.09967  -2.19222
C     0.53042  -1.13645  -1.70020
H     3.28124   0.49249   1.11118
H     4.04190   1.59108  -0.10794
H     2.39969   1.91947   0.53065
H    -3.32861   1.28687  -0.59394
H    -1.70939   1.97869  -0.82767
H    -2.12185  -1.05549  -1.05782
H    -2.64403   0.00972  -2.34391
H    -0.06236   0.91074  -2.17057
H    -0.65557  -0.32617  -3.25784
H     1.23089  -1.37635  -2.51196
H     0.01871  -2.06687  -1.41423
