29
Generated by autodE on: 2022-06-07. E = -800.015596 Ha
C     3.84428   1.26395  -0.56811
N     3.94809  -0.10643  -0.09307
C     2.95276  -0.77014   0.51341
O     2.96362  -1.95813   0.84487
C     1.76657   0.04281   0.85317
N     0.67541   0.19071   0.38594
C    -0.54014   0.38098  -0.03857
C    -0.75432   1.56967  -0.88597
O    -1.81152   1.88509  -1.40539
O     0.37516   2.28256  -1.03708
C     0.29236   3.45547  -1.85528
C    -1.57309  -0.61019   0.31628
C    -2.95004  -0.34272   0.18339
C    -3.89433  -1.30260   0.55324
C    -3.49267  -2.54050   1.06293
C    -2.12727  -2.81458   1.19975
C    -1.17722  -1.86495   0.82846
H     3.30007   1.87973   0.16352
H     3.32079   1.33032  -1.53516
H     4.85278   1.68076  -0.68122
H     4.75329  -0.66726  -0.36346
H     1.29946   3.88819  -1.86195
H    -0.01375   3.19317  -2.87853
H    -0.42627   4.17274  -1.43255
H    -3.27704   0.61894  -0.20555
H    -4.95749  -1.07471   0.44463
H    -4.23641  -3.28743   1.34956
H    -1.79727  -3.77954   1.59175
H    -0.11560  -2.10145   0.92735
