23
Generated by autodE on: 2022-06-17. E = -351.521384 Ha
C     2.69018   0.37393   2.63110
C     2.15934   0.30128   1.39064
C     3.02272   0.42252   0.16098
C     0.72129   0.10131   1.22252
C     0.06858   0.01121   0.03649
C    -1.36215  -0.18724  -0.07430
C    -2.08632  -0.29113  -1.21729
C    -1.50454  -0.21804  -2.60057
C    -3.57430  -0.49453  -1.16900
H     3.76247   0.52309   2.78551
H     2.06091   0.28597   3.52215
H     2.70344   1.27114  -0.46666
H     2.94681  -0.47967  -0.46851
H     4.07860   0.56902   0.42876
H     0.13767   0.01978   2.14744
H     0.64351   0.09195  -0.88996
H    -1.90509  -0.25904   0.87596
H    -1.73708  -1.14059  -3.16135
H    -0.41655  -0.07417  -2.61585
H    -1.96880   0.60854  -3.16707
H    -4.09834   0.32278  -1.69649
H    -3.85941  -1.42569  -1.69101
H    -3.95433  -0.54310  -0.13800
