33
Generated by autodE on: 2022-05-26. E = -976.781115 Ha
C     5.04253  -0.96154  -0.52285
N     3.72823  -0.34738  -0.58117
C     2.66647  -0.91646   0.00071
O     2.70615  -1.99170   0.60280
C     1.35688  -0.15212  -0.04686
N     0.15354  -1.00711  -0.05458
C    -0.77789   0.08318   0.05140
C    -2.22287  -0.23038   0.24957
C    -2.74319  -1.44914  -0.20371
C    -4.10540  -1.72445  -0.05653
C    -4.95140  -0.78459   0.53856
C    -4.43260   0.43478   0.98739
C    -3.07291   0.71471   0.84202
O    -0.25312   0.82537   1.31498
C     1.07456   0.68836   1.24770
O     1.86569   1.13107   2.04293
C    -0.35755   0.99240  -1.11252
C    -1.26027   1.90030  -1.86101
C     0.96629   0.81721  -1.15605
F     1.86748   1.45399  -1.90347
H     5.02436  -1.97171  -0.95938
H     5.74736  -0.34122  -1.08860
H     5.39463  -1.04545   0.51728
H     3.61991   0.54018  -1.06076
H     0.12653  -1.59415   0.78521
H    -2.08342  -2.17981  -0.67301
H    -4.50507  -2.67809  -0.40853
H    -6.01598  -1.00148   0.65320
H    -5.09013   1.17195   1.45359
H    -2.66654   1.66371   1.19474
H    -2.07556   1.33576  -2.34145
H    -1.73080   2.62695  -1.17766
H    -0.70722   2.45274  -2.63318
