26
Generated by autodE on: 2022-05-26. E = -760.762030 Ha
C     5.24487  -0.01100  -0.23463
N     3.87805  -0.41060   0.02436
C     2.83192   0.37515  -0.31713
O     2.97003   1.48282  -0.86982
C     1.51488  -0.14857   0.00074
N     0.35849   0.56294  -0.29489
C    -0.70958  -0.10764   0.08897
C    -2.10614   0.25622  -0.02746
C    -3.08936  -0.61500   0.48076
C    -4.43751  -0.27923   0.37418
C    -4.81847   0.92024  -0.23640
C    -3.84352   1.78837  -0.74270
C    -2.49320   1.46412  -0.64197
O    -0.32766  -1.26032   0.64137
C     1.11552  -1.34702   0.61426
O     1.67668  -2.33078   1.07487
H     5.43408   0.11696  -1.31318
H     5.48812   0.94172   0.26312
H     5.91920  -0.78689   0.14809
H     3.68736  -1.30376   0.46989
H     0.36618   1.47829  -0.74450
H    -2.78908  -1.54926   0.95651
H    -5.19568  -0.95801   0.77021
H    -5.87613   1.17998  -0.31899
H    -4.13819   2.72466  -1.22102
H    -1.74467   2.14980  -1.04366
