33
Generated by autodE on: 2022-05-26. E = -976.698610 Ha. Imaginary frequency = -469.8 cm-1
C     5.00604  -1.21737  -0.34440
N     3.74252  -0.65078   0.08250
C     2.56682  -1.17391  -0.30436
O     2.45594  -2.19403  -0.99806
C     1.36566  -0.42931   0.12759
N     0.11733  -1.02432   0.10060
C    -0.75903  -0.07499   0.49302
C    -2.20480  -0.19309   0.57932
C    -2.88246  -1.16593  -0.17866
C    -4.27222  -1.24552  -0.12390
C    -4.99874  -0.35322   0.67372
C    -4.32799   0.62122   1.41942
C    -2.93656   0.70650   1.37439
O    -0.09781   0.77260   1.34400
C     1.27454   0.61392   1.12925
O     2.09912   1.30019   1.69591
C    -0.32140   1.24150  -1.38267
C    -1.62444   1.76410  -1.81080
C     0.90926   1.04228  -1.35629
F     2.11016   1.32487  -1.83374
H     5.14113  -1.12595  -1.43486
H     5.82155  -0.68315   0.15773
H     5.06751  -2.28504  -0.08375
H     3.73026   0.19754   0.64438
H    -0.10941  -1.71306  -0.61540
H    -2.32522  -1.85593  -0.81560
H    -4.79277  -2.00508  -0.71086
H    -6.08854  -0.41634   0.71028
H    -4.89161   1.32075   2.04042
H    -2.41173   1.46740   1.95292
H    -2.11388   2.31819  -0.99344
H    -1.52602   2.44134  -2.67582
H    -2.30908   0.94701  -2.09053
