26
Generated by autodE on: 2022-05-28. E = -776.919346 Ha
C     4.26829  -0.86536  -0.80355
N     2.86238  -0.54596  -0.96361
C     2.15901   0.01691   0.03133
O     2.63267   0.29527   1.13353
C     0.72555   0.28368  -0.31145
C    -0.41589   0.36744   0.42239
C    -0.74655   0.36791   1.86263
C     0.24011  -0.16301   2.85926
O    -1.83907   0.80460   2.20752
N    -1.47908   0.50400  -0.54811
C    -2.42046  -0.53620  -0.66887
C    -3.19529  -0.57670  -1.95308
O    -2.59064  -1.30633   0.25970
N    -0.90380   0.98490  -1.72221
O     0.47936   0.47608  -1.64359
H     4.42093  -1.54597   0.04800
H     4.86457   0.04335  -0.62419
H     4.62540  -1.35226  -1.71832
H     2.41140  -0.70655  -1.85945
H     1.09234   0.52676   2.93707
H    -0.25795  -0.25662   3.83293
H     0.64502  -1.13351   2.53691
H    -4.02157  -1.28898  -1.83943
H    -2.53624  -0.90738  -2.77083
H    -3.57919   0.41758  -2.22077
H    -0.73765   1.99152  -1.59212
