10
Generated by autodE on: 2022-05-28. E = -338.647688 Ha
C    -1.51457  -1.02205  -0.17626
C    -0.62872   0.11740  -0.56823
O    -1.00385   1.20726  -0.93861
N     0.77179  -0.19337  -0.62073
N     1.37084  -0.18911   0.48455
O     0.91290   0.08265   1.60605
H    -2.55811  -0.68489  -0.13602
H    -1.40987  -1.82857  -0.92056
H    -1.20248  -1.42674   0.79887
H     2.37896  -0.43993   0.42707
