26
Generated by autodE on: 2022-05-28. E = -776.828246 Ha. Imaginary frequency = -386.5 cm-1
C     4.14734  -0.79330  -1.41602
N     2.77821  -0.36074  -1.22184
C     2.22195  -0.33494  -0.00334
O     2.81268  -0.66037   1.03384
C     0.82612   0.12395   0.08585
C    -0.16526   0.47242   0.76677
C    -0.78740   0.74142   2.06879
C    -0.58250  -0.34850   3.08234
O    -1.37106   1.78712   2.29748
N    -1.66142   0.79824  -0.74043
C    -2.31789  -0.45314  -0.61673
C    -2.76547  -1.07669  -1.91028
O    -2.59287  -0.89482   0.48002
N    -0.81390   0.99078  -1.68651
O     0.14281   0.17080  -1.84081
H     4.30022  -1.80540  -1.01048
H     4.85577  -0.11621  -0.91223
H     4.36703  -0.80225  -2.49004
H     2.21870  -0.05397  -2.01171
H     0.49434  -0.56746   3.16635
H    -0.99730  -0.04732   4.05344
H    -1.07497  -1.26698   2.72613
H    -3.34520  -1.98012  -1.68717
H    -1.89023  -1.33216  -2.52554
H    -3.37908  -0.36154  -2.47890
H    -0.62539   1.97807  -1.92037
