22
Generated by autodE on: 2022-07-27. E = -404.726500 Ha
C     1.28766   2.46321   0.72068
C     0.31325   1.32973   0.41372
O    -0.80984   1.33751   1.00806
C     0.70270   0.38194  -0.54972
C     1.89183   0.50604  -1.46157
N    -0.14695  -0.68967  -0.85994
C    -0.81994  -1.48507  -0.06069
C    -0.59332  -1.45922   1.39846
C    -1.79991  -2.43518  -0.65791
H     0.98395   2.93496   1.66609
H     1.25475   3.23531  -0.06755
H     2.33101   2.12448   0.80624
H     2.26527   1.53695  -1.51983
H     1.62072   0.20055  -2.48961
H     2.74126  -0.13784  -1.16309
H    -0.24048  -0.89699  -1.85970
H    -0.97186  -2.37483   1.87110
H     0.48540  -1.33097   1.60107
H    -1.07362  -0.56639   1.84077
H    -1.61753  -3.45667  -0.28742
H    -1.76336  -2.42872  -1.75718
H    -2.82332  -2.16272  -0.34449
