50
Generated by autodE on: 2022-06-22. E = -1042.037213 Ha
C     0.81499  -2.99984   1.08966
C     0.48991  -1.70106   1.16349
C     0.69180  -0.90112   2.42192
C    -0.11216  -1.00518  -0.03821
C    -1.50812  -0.38071   0.27038
C    -2.58523  -0.80855  -0.68112
C    -3.84277  -1.17444  -0.37319
C    -4.82076  -1.55094  -1.45442
C    -4.40599  -1.21345   1.02179
C    -1.24220   1.15894   0.20699
C    -1.82163   1.89996   1.39895
C    -0.88448   2.66389   2.28375
O    -3.02556   1.84375   1.59353
O     0.16273   1.33801   0.11606
C     0.70610   0.21200  -0.55826
C     0.52236   0.39105  -2.09357
C     0.61928   1.79558  -2.61484
O     0.34351  -0.56962  -2.81951
C     2.20827   0.14914  -0.34625
C     2.89329   1.18299   0.30530
C     4.27874   1.10887   0.47835
C     4.99155   0.00740  -0.00350
C     4.31193  -1.02090  -0.66508
C     2.92844  -0.94999  -0.83838
H     0.66913  -3.57093   0.16787
H     1.23877  -3.53092   1.94762
H     1.09917  -1.52712   3.22867
H     1.38549  -0.06272   2.25291
H    -0.25369  -0.45838   2.77505
H    -0.19686  -1.73207  -0.85329
H    -1.79588  -0.64459   1.29367
H    -2.30062  -0.78475  -1.73998
H    -4.37607  -1.47968  -2.45812
H    -5.71088  -0.89780  -1.42082
H    -5.18955  -2.58172  -1.30853
H    -5.18587  -0.44002   1.13501
H    -4.89820  -2.18257   1.21198
H    -3.65569  -1.04643   1.80492
H    -1.73477   1.57503  -0.69160
H    -1.44378   3.14601   3.09578
H    -0.34295   3.41816   1.69050
H    -0.12329   1.98162   2.69274
H     0.75279   1.77823  -3.70417
H    -0.31340   2.33275  -2.37600
H     1.44061   2.34243  -2.13011
H     2.33964   2.04185   0.68384
H     4.80214   1.91839   0.99262
H     6.07407  -0.04884   0.13282
H     4.86104  -1.88425  -1.04800
H     2.40424  -1.75172  -1.36077
