27
Generated by autodE on: 2022-07-27. E = -690.429048 Ha
C    -1.63374   2.15954   2.05036
C    -2.62887   1.69600   1.01493
O    -3.81153   2.06593   1.02525
C    -2.19181   0.78762  -0.01704
O    -0.94122   0.40750   0.00747
C    -0.11421  -0.36259  -0.66426
C    -0.48297  -1.02337  -1.92930
C    -1.73752  -0.62169  -2.65737
O     0.25926  -1.88678  -2.39979
C     1.19195  -0.50538  -0.01470
C     1.30312  -0.28206   1.37657
C     2.53499  -0.37887   2.01920
C     3.68694  -0.70205   1.29318
C     3.59147  -0.92345  -0.08441
C     2.36231  -0.82857  -0.73613
H    -1.34547   1.31612   2.69959
H    -0.71323   2.53929   1.58318
H    -2.09551   2.94326   2.66470
H    -2.88613   0.42087  -0.76910
H    -2.62316  -1.05741  -2.16531
H    -1.87001   0.47096  -2.68435
H    -1.67878  -1.01774  -3.67939
H     0.41014  -0.04295   1.95426
H     2.59518  -0.20849   3.09663
H     4.65220  -0.78140   1.79840
H     4.48607  -1.16694  -0.66236
H     2.30895  -0.99169  -1.81009
