50
Generated by autodE on: 2022-06-22. E = -1041.962970 Ha. Imaginary frequency = -244.5 cm-1
C     1.52354  -2.87471   0.08692
C     0.59613  -2.03219   0.59873
C     0.65758  -1.56907   2.03067
C    -0.48733  -1.55099  -0.24142
C    -1.62830  -0.89560   0.22997
C    -2.88466  -0.94090  -0.51144
C    -4.12841  -0.76963  -0.00708
C    -5.33384  -0.83942  -0.90197
C    -4.43546  -0.53441   1.44644
C    -1.12584   1.29817  -0.24898
C    -1.81235   2.00869   0.82329
C    -1.03977   2.36845   2.06393
O    -3.01753   2.24419   0.69953
O     0.19475   1.28200  -0.19515
C     1.06296   0.50868  -0.86085
C     0.81665   0.06085  -2.23722
C    -0.28361   0.69143  -3.06136
O     1.53570  -0.79860  -2.76227
C     2.35655   0.41824  -0.18475
C     2.58505   1.17549   0.99114
C     3.78843   1.08433   1.68159
C     4.80461   0.23052   1.23048
C     4.59509  -0.52470   0.07637
C     3.38989  -0.43944  -0.62605
H     1.47418  -3.20443  -0.95406
H     2.34639  -3.25153   0.69891
H     1.57975  -1.91302   2.51895
H     0.62310  -0.47100   2.09384
H    -0.20229  -1.94825   2.60806
H    -0.51568  -1.94273  -1.26156
H    -1.68515  -0.70340   1.30226
H    -2.78954  -1.14198  -1.58475
H    -5.06433  -1.05649  -1.94604
H    -5.88808   0.11604  -0.87736
H    -6.04030  -1.61343  -0.55290
H    -5.05224   0.37112   1.56773
H    -5.03284  -1.37419   1.84455
H    -3.54178  -0.42369   2.07337
H    -1.64362   1.19289  -1.19618
H    -1.71366   2.84754   2.78541
H    -0.21335   3.05321   1.81604
H    -0.59100   1.46816   2.51193
H    -1.23818   0.16529  -2.90089
H    -0.43070   1.75776  -2.83755
H    -0.00881   0.56913  -4.11753
H     1.80736   1.84213   1.35982
H     3.93704   1.68455   2.58240
H     5.74815   0.15879   1.77640
H     5.37577  -1.19688  -0.28796
H     3.24016  -1.02963  -1.52373
