31
Generated by autodE on: 2022-07-27. E = -801.222152 Ha
C    -0.23863  -3.48063   0.46374
O     0.31278  -2.17525   0.22258
C    -0.55335  -1.17553   0.11083
O    -1.75448  -1.30870   0.01690
C     0.13085   0.15500  -0.06577
C    -0.35200   0.96627  -1.20770
C    -1.66748   1.45981  -1.21386
C    -2.12753   2.19825  -2.30530
C    -1.29059   2.43274  -3.40095
C     0.01426   1.92978  -3.40372
C     0.48542   1.19945  -2.31214
N     1.13504   0.53236   0.68780
C     1.82208   1.81975   0.46621
N     1.70463  -0.15925   1.70978
C     0.87221  -0.76028   2.58475
C     1.57991  -1.54701   3.65799
O    -0.37566  -0.70960   2.56373
H    -0.82928  -3.46747   1.39042
H    -0.87226  -3.79224  -0.37849
H     0.61953  -4.15384   0.56632
H    -2.31874   1.27352  -0.35976
H    -3.14615   2.59230  -2.29888
H    -1.65657   3.00714  -4.25504
H     0.66914   2.10494  -4.26001
H     1.50201   0.80161  -2.31388
H     2.76734   1.62905  -0.05922
H     2.03418   2.24253   1.45391
H     1.19711   2.49896  -0.11879
H     2.65694  -1.33877   3.68667
H     1.12367  -1.33167   4.63595
H     1.42667  -2.62006   3.45223
