50
Generated by autodE on: 2022-06-23. E = -1207.590525 Ha
C     4.31293  -1.85717   0.14961
O     3.77897  -0.52983   0.25463
C     2.47317  -0.30810   0.03205
C     2.07201   0.94978  -0.32371
O     3.00635   1.91526  -0.43822
C     2.79072   3.00353  -1.34674
C     0.63261   1.28285  -0.33266
O     0.26777   2.43803  -0.15804
C    -0.36382   0.18727  -0.71081
C    -0.62407   0.46873  -2.20963
C    -1.68677   0.28500   0.14433
C    -1.35039   0.70372   1.60110
C    -2.39004   1.34696   2.47380
O    -0.25631   0.40572   2.05661
C    -2.71624   1.23626  -0.50442
C    -3.73063   0.68435  -1.46796
O    -2.69661   2.42181  -0.22673
N    -2.15149  -1.10448   0.16588
C    -3.29167  -1.43023   1.01372
C    -0.98814  -1.96855   0.37212
C    -1.27030  -3.42792   0.04137
C     0.14968  -1.28219  -0.43952
C     0.51975  -2.05060  -1.72956
C     1.44121  -1.31931   0.36676
O     1.68071  -2.21257   1.16638
H     5.38594  -1.73167  -0.04637
H     4.16754  -2.41677   1.08252
H     3.85172  -2.40292  -0.68706
H     3.78922   3.37154  -1.61866
H     2.27102   2.66169  -2.25485
H     2.21444   3.80888  -0.87306
H     0.31357   0.39922  -2.77632
H    -1.01012   1.48746  -2.34528
H    -1.33714  -0.24371  -2.63850
H    -2.21011   1.05895   3.51861
H    -3.41889   1.11273   2.17541
H    -2.26457   2.43834   2.38311
H    -4.67992   0.56054  -0.91940
H    -3.90336   1.42238  -2.26355
H    -3.45191  -0.28920  -1.88105
H    -3.02590  -1.51609   2.08660
H    -4.08107  -0.67499   0.91579
H    -3.72268  -2.39108   0.69990
H    -0.69134  -1.94080   1.43745
H    -0.35043  -4.01700   0.15964
H    -2.01434  -3.84295   0.73639
H    -1.64529  -3.55834  -0.98384
H     1.28313  -1.51010  -2.30433
H     0.92789  -3.03790  -1.47678
H    -0.35920  -2.19871  -2.36838
