24
Generated by autodE on: 2022-07-27. E = -518.110524 Ha
C     0.89154  -3.19379   0.62923
C     0.87532  -1.79696   0.14695
N    -0.14927  -1.01425   0.23368
C    -1.42113  -1.50451   0.78885
C    -0.04563   0.38427  -0.11922
C     0.79908   1.22463   0.67291
C     1.49936   0.63326   1.89188
O     0.98473   2.43596   0.42516
C    -0.87137   0.75939  -1.22792
C    -0.89101   2.19577  -1.70150
O    -1.58374  -0.08689  -1.81329
H     1.88357  -3.63779   0.48742
H     0.61651  -3.23663   1.69709
H     0.14322  -3.79571   0.08498
H     1.76944  -1.35890  -0.30543
H    -1.27818  -1.74228   1.85379
H    -2.17511  -0.72071   0.68543
H    -1.74588  -2.40861   0.25747
H     1.71810   1.45701   2.58522
H     0.90837  -0.13353   2.41280
H     2.45977   0.17686   1.60064
H     0.11062   2.52424  -2.01568
H    -1.59148   2.27165  -2.54516
H    -1.20007   2.87727  -0.89490
