50
Generated by autodE on: 2022-06-23. E = -1207.549377 Ha. Imaginary frequency = -417.9 cm-1
C     4.42547  -0.47232   0.78074
O     3.21264  -1.23245   0.74196
C     2.14872  -0.77859   0.05282
C     1.81843   0.52743  -0.17735
O     2.47862   1.49738   0.48486
C     2.85814   2.73705  -0.12356
C     0.70668   0.84766  -1.11616
O     0.64345   1.96685  -1.63788
C    -0.28060  -0.20118  -1.39645
C    -1.20202   0.02475  -2.54854
C    -1.75098   0.62197   0.56501
C    -0.81375   1.42093   1.39932
C    -0.33427   0.89532   2.73988
O    -0.45526   2.54901   1.06328
C    -2.72164   1.30364  -0.32116
C    -2.60071   2.77908  -0.60319
O    -3.61884   0.66441  -0.87774
N    -1.96344  -0.71166   0.88602
C    -3.29085  -1.33693   0.90635
C    -0.84041  -1.50710   0.94422
C    -0.94869  -2.90305   1.48155
C    -0.12056  -1.52897  -0.86134
C    -0.84186  -2.65102  -1.58390
C     1.29593  -1.87026  -0.48439
O     1.72356  -3.01570  -0.53792
H     5.21493  -1.18497   1.05477
H     4.64649  -0.04040  -0.20777
H     4.37527   0.33011   1.52850
H     2.02363   3.44970  -0.12025
H     3.67928   3.12669   0.49415
H     3.21398   2.58270  -1.15172
H    -0.80835  -0.49970  -3.43841
H    -2.20373  -0.38130  -2.35712
H    -1.28917   1.08991  -2.78888
H    -0.37700   1.73739   3.44565
H    -0.91129   0.05204   3.13600
H     0.72432   0.60254   2.65230
H    -3.43622   3.05905  -1.25849
H    -2.62450   3.37582   0.31922
H    -1.64539   2.99966  -1.09941
H    -3.31711  -2.05950   1.73220
H    -3.52527  -1.85494  -0.03327
H    -4.04971  -0.57410   1.09215
H     0.01783  -0.97111   1.34902
H     0.02534  -3.40238   1.40516
H    -1.69822  -3.51129   0.96025
H    -1.21913  -2.85974   2.54976
H    -0.63785  -3.61824  -1.11148
H    -0.50277  -2.71402  -2.63006
H    -1.92630  -2.48494  -1.59147
