57
Generated by autodE on: 2022-06-24. E = -1192.180902 Ha
C     5.81839  -1.68058  -0.62788
C     4.89506  -1.11640   0.17705
C     5.21842  -0.71348   1.59180
C     3.53619  -0.88349  -0.32443
C     2.52829  -0.32933   0.37456
C     1.15796  -0.13451  -0.18876
C     0.61158   1.32886  -0.12041
C     1.29919   2.25426   0.88022
C     0.72388   1.97466  -1.51243
O     1.79180   1.93739  -2.13393
N    -0.37545   2.60102  -1.96071
C    -0.47637   3.08790  -3.32169
O    -0.76828   1.21731   0.26822
C    -1.23438  -0.13304   0.11955
C    -1.68042  -0.22691  -1.37485
O    -0.90942  -0.53601  -2.28985
N    -2.93155   0.19495  -1.62378
C    -3.41363   0.39113  -2.97739
C    -2.40000  -0.36518   1.06234
C    -3.14760  -1.54991   0.96289
C    -4.19057  -1.80723   1.85402
C    -4.50732  -0.87973   2.85268
C    -3.77499   0.30599   2.94855
C    -2.72645   0.56202   2.05910
C     0.03170  -0.98810   0.48114
C     0.20004  -1.04388   2.00879
C     0.02312  -2.42110  -0.05163
H     6.83950  -1.86738  -0.28353
H     5.57271  -1.96985  -1.65435
H     6.26461  -0.93915   1.84211
H     4.56794  -1.23777   2.31159
H     5.04932   0.36540   1.74491
H     3.34979  -1.18856  -1.36089
H     2.70065  -0.01372   1.40534
H     1.18688  -0.42724  -1.24225
H     2.33890   2.43734   0.57717
H     1.29263   1.81823   1.88780
H     0.76923   3.21807   0.90846
H    -1.22310   2.46885  -1.41791
H    -0.50395   2.25397  -4.04340
H    -1.39519   3.67794  -3.42690
H     0.38508   3.72497  -3.56808
H    -3.52537   0.45792  -0.84435
H    -4.48835   0.60778  -2.94411
H    -3.24995  -0.51208  -3.58348
H    -2.89598   1.23113  -3.46965
H    -2.92045  -2.27348   0.17777
H    -4.76143  -2.73446   1.76510
H    -5.32567  -1.07939   3.54843
H    -4.01816   1.03944   3.72111
H    -2.15340   1.48495   2.13981
H     0.20004  -0.04726   2.47107
H     1.15002  -1.53695   2.25921
H    -0.60755  -1.63078   2.46741
H    -0.16000  -2.46197  -1.13177
H     1.00132  -2.88544   0.14998
H    -0.73909  -3.02745   0.45995
