23
Generated by autodE on: 2022-06-24. E = -351.521384 Ha
C     3.58486  -0.50391  -1.09283
C     2.52003  -0.51718  -0.26110
C     2.64416  -0.99645   1.16267
C     1.21617  -0.05919  -0.73695
C     0.07589  -0.01982  -0.00270
C    -1.19359   0.44440  -0.52389
C    -2.37264   0.51840   0.14399
C    -2.56052   0.12049   1.58048
C    -3.61218   1.02448  -0.53793
H     4.57166  -0.84047  -0.76286
H     3.49163  -0.15471  -2.12585
H     3.67268  -1.31129   1.38861
H     1.97072  -1.84799   1.35584
H     2.36028  -0.20369   1.87467
H     1.17810   0.27765  -1.77994
H     0.10627  -0.35333   1.03816
H    -1.18543   0.76714  -1.57202
H    -1.64380  -0.24451   2.06113
H    -3.32898  -0.66853   1.66132
H    -2.93878   0.97634   2.16710
H    -3.42698   1.30095  -1.58628
H    -4.41144   0.26200  -0.51332
H    -4.01684   1.90681  -0.01005
