34
Generated by autodE on: 2022-07-27. E = -840.559231 Ha
C    -1.81025  -1.11194  -3.02277
N    -1.57058  -0.66529  -1.66487
C    -0.35740  -0.78257  -1.09419
O     0.60060  -1.30667  -1.68264
C    -0.22283  -0.33415   0.31681
O     0.95860   0.10014   0.73083
C     1.98584   0.63413   0.09880
C     3.22499   0.72270   0.92314
C     1.80084   1.30962  -1.18097
O     0.67229   1.55329  -1.65401
N     2.93204   1.73549  -1.79849
C     2.87368   2.56886  -2.98076
C    -1.16230  -0.59371   1.39121
C    -2.27452  -1.45912   1.24322
C    -3.14596  -1.68948   2.30574
C    -2.93813  -1.07818   3.54748
C    -1.83985  -0.22545   3.71252
C    -0.96899   0.02088   2.65457
H    -1.17711  -0.56211  -3.73834
H    -1.59189  -2.18558  -3.13198
H    -2.86382  -0.93794  -3.27316
H    -2.30489  -0.17417  -1.16681
H     2.98688   0.48183   1.96921
H     3.99434   0.00424   0.58392
H     3.67726   1.72717   0.88347
H     3.83049   1.58793  -1.35295
H     2.51213   3.58732  -2.75548
H     2.19466   2.13046  -3.72715
H     3.87841   2.64337  -3.41509
H    -2.44606  -1.97131   0.29720
H    -3.99242  -2.36582   2.16406
H    -3.62515  -1.26226   4.37635
H    -1.66738   0.26406   4.67426
H    -0.13333   0.70852   2.79039
