34
Generated by autodE on: 2022-06-24. E = -840.568547 Ha
C     0.17301   3.99205  -1.28453
N    -0.04263   2.67631  -0.72191
C     0.94808   1.75038  -0.70053
O     2.08637   2.00844  -1.13348
C     0.61466   0.43318  -0.13418
O    -0.68694   0.27588   0.08963
C    -1.39075  -0.55849   0.81723
C    -0.78178  -1.48807   1.78402
C    -2.84762  -0.38854   0.69792
O    -3.62516  -1.03082   1.42738
N    -3.29503   0.48560  -0.23464
C    -4.70948   0.73482  -0.41296
C     1.58566  -0.64885  -0.03697
C     1.25580  -1.95577  -0.46191
C     2.20940  -2.97483  -0.43666
C     3.50755  -2.71657   0.01156
C     3.84989  -1.42280   0.42643
C     2.90582  -0.39950   0.40092
H     0.91991   4.56550  -0.70998
H     0.53060   3.92790  -2.32435
H    -0.77559   4.54289  -1.27242
H    -0.93275   2.46379  -0.28828
H     0.03357  -0.98399   2.33141
H    -0.33062  -2.38176   1.31361
H    -1.55762  -1.81948   2.48475
H    -2.62876   0.94227  -0.84677
H    -4.83937   1.50703  -1.18100
H    -5.24503  -0.17444  -0.73331
H    -5.17539   1.08454   0.52212
H     0.25804  -2.16443  -0.85186
H     1.93452  -3.97630  -0.77595
H     4.25059  -3.51694   0.03621
H     4.86214  -1.21291   0.78035
H     3.17809   0.60226   0.73227
