57
Generated by autodE on: 2022-06-24. E = -1192.075780 Ha. Imaginary frequency = -302.4 cm-1
C     5.99061   0.42784  -0.14483
C     4.85921   0.18874   0.55593
C     4.82449   0.34527   2.05543
C     3.63568  -0.21705  -0.13079
C     2.44242  -0.46717   0.46939
C     1.24045  -0.85101  -0.23735
C     0.47143   1.57217  -0.04886
C     1.35348   2.31141   0.90734
C     0.48440   2.02699  -1.47317
O    -0.51742   2.54976  -1.98191
N     1.66992   1.94893  -2.10387
C     1.83479   2.40818  -3.46845
O    -0.65810   1.15903   0.49079
C    -1.56360   0.26429   0.07974
C    -1.86359   0.11817  -1.39111
O    -1.01243  -0.16936  -2.24142
N    -3.14906   0.32955  -1.74407
C    -3.57847   0.20757  -3.12283
C    -2.53946  -0.06520   1.11646
C    -3.49842  -1.08795   0.92905
C    -4.35834  -1.46330   1.96169
C    -4.29237  -0.83440   3.20866
C    -3.35138   0.18288   3.40811
C    -2.48976   0.56420   2.38219
C     0.16190  -1.51633   0.34652
C     0.06464  -1.62979   1.84490
C    -0.56717  -2.58381  -0.42518
H     6.91392   0.74061   0.35057
H     6.01599   0.31746  -1.23351
H     5.80375   0.65504   2.44687
H     4.53796  -0.59916   2.54739
H     4.07607   1.09616   2.35859
H     3.70757  -0.31976  -1.22090
H     2.37650  -0.38470   1.55686
H     1.32900  -0.91611  -1.32432
H     1.23652   1.91387   1.92440
H     2.40761   2.21685   0.61183
H     1.11038   3.39014   0.91502
H     2.42903   1.44629  -1.65217
H     2.88288   2.27621  -3.76364
H     1.57163   3.47325  -3.56166
H     1.19518   1.83908  -4.16307
H    -3.82563   0.59544  -1.03725
H    -3.04820   0.92758  -3.76659
H    -3.38082  -0.80351  -3.51298
H    -4.65591   0.40534  -3.17816
H    -3.56719  -1.60468  -0.02741
H    -5.08500  -2.26061   1.78770
H    -4.96755  -1.13014   4.01469
H    -3.29070   0.68939   4.37464
H    -1.76558   1.36052   2.55338
H     0.25995  -0.67325   2.35142
H     0.80332  -2.35991   2.22302
H    -0.92868  -1.98403   2.15360
H    -1.62479  -2.66392  -0.13267
H    -0.10592  -3.56319  -0.19553
H    -0.50672  -2.42763  -1.50878
