23
Generated by autodE on: 2022-05-31. E = -588.345066 Ha
C    -1.14359   3.88069   0.01592
C    -0.73683   2.49655   0.00173
N    -0.39969   1.38440   0.00003
C    -0.08855   0.07115   0.00182
C     1.30933  -0.32827  -0.04635
O     1.66044  -1.53394  -0.04881
N     2.25339   0.64851  -0.08621
C     3.66364   0.32985  -0.15948
C    -1.24735  -0.82630   0.05438
O    -2.41484  -0.38208   0.08763
N    -0.98574  -2.15343   0.06521
C    -2.04408  -3.13508   0.11635
H    -2.23144   3.91148   0.19054
H    -0.92178   4.36767  -0.94665
H    -0.64120   4.41825   0.83555
H     1.97762   1.62248  -0.11029
H     4.23679   1.26548  -0.15638
H     3.98671  -0.28028   0.69942
H     3.91269  -0.22883  -1.07724
H     0.00055  -2.41680   0.03635
H    -2.72607  -3.05130  -0.74677
H    -1.59933  -4.13861   0.10811
H    -2.65616  -3.03529   1.02896
