17
Generated by autodE on: 2022-05-31. E = -645.729928 Ha
F     3.14039   1.19991  -0.27097
C     2.62348   0.05422   0.20948
F     3.02940  -0.06071   1.48707
F     3.19431  -0.95364  -0.47739
C     1.17009   0.03132   0.10076
C    -0.03917   0.00393   0.00230
C    -1.46167  -0.02705  -0.11318
C    -2.23281  -0.74343   0.82488
C    -3.62128  -0.77123   0.70517
C    -4.25161  -0.09073  -0.34244
C    -3.49028   0.62169  -1.27559
C    -2.10111   0.65730  -1.16707
H    -1.73482  -1.27214   1.63945
H    -4.21550  -1.32718   1.43356
H    -5.33997  -0.11581  -0.43215
H    -3.98237   1.15261  -2.09331
H    -1.50113   1.21054  -1.89169
