48
Generated by autodE on: 2022-06-04. E = -1989.594389 Ha
C    -0.93743   4.00729  -1.11752
N    -0.80968   2.77723  -0.36194
C    -0.06555   1.76782  -0.81275
O     0.61025   1.82347  -1.84182
C    -0.06524   0.47764   0.05148
Cl    0.45583   0.94608   1.73259
C     0.94181  -0.61760  -0.46838
C     0.82582  -0.83427  -1.94474
N     0.80877  -1.23749  -3.03368
C     2.42302  -0.30852  -0.16807
C     2.99483  -0.75043   1.03318
C     4.32911  -0.46674   1.32873
C     5.11089   0.26324   0.42803
C     4.54793   0.70041  -0.77318
C     3.21321   0.41214  -1.07223
N     0.46992  -1.79839   0.22365
C     1.09086  -3.06349  -0.11962
C    -0.99525  -1.78976   0.47927
C    -1.73458  -2.84666  -0.35679
C    -1.20230  -2.10463   1.97463
C    -1.41390  -0.30399   0.12975
Cl   -2.14994  -0.17264  -1.56384
C    -2.52890   0.33404   1.00512
O    -2.44373   1.48403   1.44495
N    -3.62664  -0.40447   1.19627
C    -4.76612   0.11725   1.93045
H    -1.55160   4.71235  -0.54433
H    -1.41570   3.83048  -2.09524
H     0.04887   4.46035  -1.29976
H    -1.41280   2.59165   0.44562
H     2.38833  -1.31809   1.73678
H     4.75922  -0.82016   2.26875
H     6.15546   0.48457   0.65947
H     5.14859   1.26703  -1.48841
H     2.78558   0.76143  -2.01044
H     2.18331  -2.96109  -0.07839
H     0.80364  -3.82815   0.61504
H     0.82484  -3.43064  -1.12819
H    -1.46908  -3.84666   0.01145
H    -1.47619  -2.78622  -1.42053
H    -2.82579  -2.75337  -0.26548
H    -2.25064  -2.32507   2.20969
H    -0.61027  -2.99906   2.21555
H    -0.85592  -1.28357   2.61480
H    -3.69255  -1.33759   0.80810
H    -4.47852   0.39698   2.95541
H    -5.18077   1.00890   1.43454
H    -5.53772  -0.66034   1.97478
