28
Generated by autodE on: 2022-06-04. E = -575.434156 Ha
C    -3.23198   0.79443  -1.34750
C    -2.12027   0.57028  -0.37660
C    -1.70114   1.70083   0.48638
N    -1.52928  -0.60240  -0.27760
C    -2.07849  -1.78092  -0.96966
C    -0.29619  -0.78052   0.41239
C    -0.22568  -1.86473   1.29293
N    -0.15125  -2.77414   2.03620
C     0.87584   0.02992   0.12726
C     0.96300   0.89023  -0.99595
C     2.12668   1.61158  -1.26800
C     3.24620   1.51607  -0.43498
C     3.17841   0.67049   0.68063
C     2.02216  -0.05338   0.96023
H    -3.27074   1.85819  -1.61994
H    -4.19916   0.54358  -0.87554
H    -3.13203   0.19308  -2.26026
H    -2.56566   2.35350   0.67547
H    -1.26899   1.33804   1.43024
H    -0.92804   2.31387  -0.01145
H    -1.77650  -2.67588  -0.41389
H    -1.66431  -1.83912  -1.98684
H    -3.17229  -1.73922  -1.00950
H     0.11949   0.97845  -1.68334
H     2.15474   2.25806  -2.14945
H     4.15171   2.08828  -0.64820
H     4.03888   0.57781   1.34905
H     1.99516  -0.70130   1.83957
