22
Generated by autodE on: 2022-10-07. E = -608.931346 Ha
C     4.16701  -0.61242   0.90492
C     2.66367  -0.53806   0.79154
O     1.91246  -1.08887   1.60431
C     2.13210   0.22036  -0.32820
C     2.91455   0.87851  -1.29552
N     3.58830   1.41640  -2.08577
N     0.78367   0.27900  -0.41360
C    -0.36840   0.19031  -0.28223
C    -1.76342   0.06661  -0.09783
C    -2.22299  -0.68224   1.00789
C    -3.59371  -0.81731   1.20665
C    -4.49869  -0.21813   0.32227
C    -4.03513   0.52318  -0.77110
C    -2.66888   0.67329  -0.99276
H     4.60304  -1.06291  -0.00090
H     4.59720   0.39671   1.00666
H     4.43546  -1.21597   1.78139
H    -1.50081  -1.14128   1.68479
H    -3.95880  -1.39486   2.05820
H    -5.57256  -0.32970   0.48637
H    -4.74472   0.98872  -1.45786
H    -2.29419   1.24784  -1.84076
