32
Generated by autodE on: 2022-10-07. E = -1063.978571 Ha. Imaginary frequency = -338.8 cm-1
C    -2.06431   1.81087  -1.45972
C    -2.64443   1.11565  -0.25743
O    -3.85332   0.92318  -0.11803
C    -1.70330   0.67508   0.77536
C    -2.22037   0.19280   2.00815
N    -2.66399  -0.21083   3.00827
N    -0.39287   0.94142   0.68840
C     0.66812   0.52133   0.28324
C     2.00174   1.02299   0.05620
C     2.20274   2.42162   0.05722
C     3.46913   2.93765  -0.19854
C     4.54175   2.07151  -0.44664
C     4.34656   0.68674  -0.44080
C     3.08051   0.15547  -0.19793
C     0.25857  -1.55171  -0.24426
C     0.88611  -2.15258   1.00751
O     0.25034  -2.05012   2.08858
O     2.00361  -2.71907   0.85460
C    -1.10331  -1.62145  -0.44277
C    -1.73851  -1.41213  -1.79356
O    -2.98264  -1.60802  -1.87122
O    -0.99112  -1.04902  -2.74911
H    -1.27898   1.19824  -1.92629
H    -1.60763   2.76677  -1.15554
H    -2.86463   1.99904  -2.18659
H     1.35874   3.08520   0.25204
H     3.62359   4.01866  -0.20347
H     5.53509   2.48064  -0.64489
H     5.18635   0.01495  -0.62955
H     2.92529  -0.92341  -0.17355
H     0.88357  -1.48189  -1.13904
H    -1.75214  -1.99484   0.35134
