23
Generated by autodE on: 2022-06-22. E = -351.521382 Ha
C     3.58002   1.21679   0.02619
C     2.55548   0.35073   0.18775
C     2.78728  -1.05317   0.68511
C     1.18980   0.77026  -0.12049
C     0.07881   0.00143   0.00353
C    -1.25452   0.46940  -0.31598
C    -2.41302  -0.22961  -0.21161
C    -2.50768  -1.64931   0.27082
C    -3.72611   0.39813  -0.58522
H     4.61126   0.92966   0.24976
H     3.40836   2.23552  -0.33498
H     2.23066  -1.24126   1.61827
H     3.85393  -1.23693   0.87632
H     2.43305  -1.79767  -0.04715
H     1.07509   1.79959  -0.48116
H     0.18468  -1.02571   0.36309
H    -1.31877   1.50201  -0.68001
H    -1.53997  -2.08861   0.54502
H    -3.17365  -1.70961   1.14976
H    -2.96766  -2.28675  -0.50493
H    -3.60763   1.43448  -0.93414
H    -4.22576  -0.18351  -1.38075
H    -4.41985   0.39613   0.27478
