27
Generated by autodE on: 2022-06-22. E = -687.361294 Ha
N    -1.27653   3.72166   1.00170
C    -1.16712   2.59635   0.69578
C    -1.06517   1.24154   0.32793
N     0.16977   0.73523   0.20059
C     1.21507   0.22809   0.07089
C     2.47796  -0.38133  -0.08048
C     2.55722  -1.72911  -0.49966
C     3.80814  -2.32212  -0.64483
C     4.97545  -1.59502  -0.38203
C     4.89168  -0.26016   0.03167
C     3.65334   0.35648   0.18710
C    -2.23162   0.39186   0.08542
C    -2.08920  -0.96519  -0.27453
C    -3.21257  -1.76026  -0.50448
C    -4.50133  -1.22963  -0.38188
C    -4.65147   0.11544  -0.02374
C    -3.53573   0.91870   0.20760
H     1.64315  -2.28829  -0.70473
H     3.87215  -3.36326  -0.96793
H     5.95185  -2.06939  -0.50022
H     5.80150   0.30780   0.23716
H     3.57977   1.39577   0.51022
H    -1.09379  -1.40278  -0.37548
H    -3.07653  -2.80844  -0.78254
H    -5.37775  -1.85566  -0.56298
H    -5.65060   0.54679   0.07710
H    -3.67119   1.96644   0.48549
