38
Generated by autodE on: 2022-05-29. E = -989.951452 Ha
C    -1.57760  -1.69293   1.86997
C    -1.38399  -0.72144   0.69968
C    -2.54179   0.26999   0.52588
C    -3.57271   0.39517   1.46468
C    -4.58428   1.34615   1.28491
C    -4.57289   2.18519   0.16928
C    -3.54192   2.06949  -0.77105
C    -2.53598   1.12045  -0.59179
N    -1.12278  -1.43207  -0.57134
C     0.30243  -1.47052  -0.85629
C     0.92869  -2.75786  -0.44515
N     1.34889  -3.77838  -0.08935
C     0.54310  -1.26467  -2.30652
N     0.69176  -1.08140  -3.44076
C     0.87771  -0.30527  -0.01998
C     2.22081   0.23590  -0.23091
C     2.49864   1.58324   0.07989
C     3.77336   2.10812  -0.12100
C     4.79339   1.30350  -0.63983
C     4.52766  -0.03014  -0.96316
C     3.25316  -0.56082  -0.76655
C    -0.07955   0.05386   0.86456
C     0.03422   1.01611   1.90133
N     0.07244   1.77897   2.77936
H    -2.49831  -2.27849   1.73090
H    -1.64629  -1.15780   2.82723
H    -0.72445  -2.38393   1.92430
H    -3.60083  -0.24550   2.34573
H    -5.38397   1.42775   2.02494
H    -5.36258   2.92748   0.03113
H    -3.52266   2.72270  -1.64669
H    -1.73413   1.02957  -1.32750
H    -1.55461  -2.35359  -0.60539
H     1.70659   2.23241   0.45344
H     3.96830   3.15561   0.11853
H     5.79144   1.71779  -0.79892
H     5.31696  -0.66477  -1.37132
H     3.07991  -1.60876  -1.01357
