23
Generated by autodE on: 2022-07-26. E = -589.063225 Ha
C    -0.54062  -1.67030   2.38388
C    -0.17176  -0.96794   1.11910
N     0.81057  -1.47182   0.41157
C     1.53694  -0.97734  -0.68457
C     2.31000  -1.89263  -1.41575
N     2.95944  -2.65187  -2.02856
C     1.59918   0.38816  -0.99373
N     1.67837   1.52255  -1.27517
C    -0.91327   0.23539   0.71479
C    -1.30173   1.17930   1.68440
C    -2.06057   2.29116   1.31967
C    -2.46928   2.45916  -0.00716
C    -2.11307   1.51005  -0.97106
C    -1.33442   0.40952  -0.61862
H    -1.62934  -1.81979   2.43535
H    -0.25600  -1.05103   3.25158
H    -0.02719  -2.63823   2.47605
H     1.15663  -2.37672   0.74120
H    -0.99241   1.05222   2.72287
H    -2.33841   3.02753   2.07683
H    -3.06906   3.32733  -0.28963
H    -2.44217   1.62822  -2.00567
H    -1.06932  -0.32849  -1.37715
