15
Generated by autodE on: 2022-05-29. E = -400.824239 Ha
N     4.33875  -1.83876   0.20098
C     3.26298  -1.38389   0.15037
C     2.00404  -0.85148   0.09140
C     0.87983  -0.37566   0.03931
C    -0.42683   0.17973  -0.02037
C    -0.79512   1.00649  -1.10382
C    -2.07766   1.54750  -1.15497
C    -2.99875   1.27368  -0.13733
C    -2.63772   0.45470   0.93876
C    -1.35901  -0.09369   1.00412
H    -0.07070   1.21443  -1.89284
H    -2.36159   2.18670  -1.99358
H    -4.00317   1.70043  -0.18315
H    -3.35793   0.24269   1.73170
H    -1.06871  -0.73318   1.83925
