56
Generated by autodE on: 2022-07-01. E = -6484.457604 Ha. Imaginary frequency = -308.6 cm-1
C    -9.86665  -3.73901   4.10671
N   -10.13148  -4.03704   2.71262
C   -10.22372  -3.04794   1.80220
O    -9.91729  -1.88522   2.08571
C   -10.72023  -3.46471   0.43201
C   -10.72467  -4.87803   0.21986
N   -10.71353  -6.04040   0.15395
C   -12.86585  -2.54538   0.76903
C   -12.57536  -1.33763   0.57976
C   -10.68661  -1.32317  -0.50054
C   -10.80678  -0.39477  -1.65251
O   -11.18310  -0.65610  -2.77977
O   -10.48846   0.84356  -1.26081
C   -10.67414   1.89329  -2.21987
N   -10.55234  -2.66369  -0.67764
C   -10.79838  -3.27716  -1.99442
C   -12.98499   0.07312   0.86109
C   -11.81220   0.81691   1.37397
N   -10.94513   1.40661   1.86925
C   -13.55403   0.77038  -0.38522
C   -14.05189   0.02129  -1.45646
C   -14.62014   0.66225  -2.56152
C   -14.70042   2.05603  -2.60160
C   -14.20704   2.80804  -1.52995
C   -13.63508   2.16888  -0.42897
C   -14.00545   0.14754   2.05552
C   -15.39678  -0.45169   1.84795
C   -15.60161  -1.93252   2.19664
C   -15.32795  -2.95935   1.09233
C   -13.90690  -3.52558   0.99664
Br  -13.97040  -4.80817  -0.57019
Br  -13.50950  -4.59990   2.63284
H    -9.76376  -4.68344   4.65461
H    -8.93643  -3.16273   4.21236
H   -10.68681  -3.15288   4.55463
H   -10.47285  -4.96379   2.48415
H   -10.21302  -0.92298   0.38875
H    -9.94355   1.79274  -3.03589
H   -10.50926   2.82939  -1.67499
H   -11.69151   1.86472  -2.63109
H   -10.19733  -2.76903  -2.75129
H   -10.50556  -4.32998  -1.95677
H   -11.86210  -3.19746  -2.25668
H   -13.98841  -1.06705  -1.43496
H   -14.99859   0.06510  -3.39418
H   -15.14294   2.55646  -3.46588
H   -14.26010   3.89880  -1.55376
H   -13.24242   2.76493   0.39771
H   -13.52093  -0.31013   2.93187
H   -14.11405   1.22015   2.27381
H   -15.75249  -0.25285   0.82372
H   -16.06435   0.12355   2.50817
H   -16.66351  -2.05728   2.45846
H   -15.03962  -2.18956   3.10939
H   -15.55257  -2.51226   0.11127
H   -16.00168  -3.81923   1.21109
