36
Generated by autodE on: 2022-06-17. E = -692.379313 Ha
C    -0.67123  -0.61717   2.62948
C    -0.83172   0.52414   1.94460
C    -1.27707   1.79362   2.61969
C    -0.55872   0.64057   0.46145
C     0.23694  -0.51145  -0.17478
C     1.70015  -0.49804   0.12150
C     2.44300  -1.54368   0.52988
C     3.90554  -1.36682   0.83225
C     1.92214  -2.93703   0.74511
N    -0.06133  -0.31161  -1.61956
C     0.68474   0.56698  -2.31170
N     1.33930   1.24973  -2.99634
O    -1.44140   0.01071  -1.68091
C    -1.81847   0.76150  -0.45517
C    -2.11207   2.19643  -0.86750
C    -3.04786   0.04360   0.07670
H    -0.86872  -0.65118   3.70510
H    -0.34049  -1.54754   2.16392
H    -0.54395   2.60109   2.45264
H    -2.23474   2.15156   2.20619
H    -1.40375   1.65183   3.70257
H     0.03665   1.55725   0.31063
H    -0.22255  -1.47405   0.07336
H     2.18650   0.47781   0.01236
H     4.51475  -2.03613   0.20037
H     4.12011  -1.64832   1.87800
H     4.24044  -0.33175   0.67261
H     0.87463  -3.07101   0.44775
H     2.01815  -3.21466   1.80907
H     2.53491  -3.65979   0.18023
H    -1.22723   2.65119  -1.33802
H    -2.94915   2.22712  -1.58151
H    -2.38357   2.79961   0.01131
H    -3.47512   0.58785   0.93082
H    -3.81271  -0.01130  -0.71289
H    -2.79951  -0.97740   0.39958
