13
Generated by autodE on: 2022-06-17. E = -340.808998 Ha
C    -1.94325   1.01336  -0.22874
C    -1.32022  -0.28070   0.08760
C    -2.09188  -1.49872   0.40087
O    -0.05579  -0.41012   0.10573
N     0.73866   0.75284  -0.19254
C     1.99409   0.36549  -0.11788
N     3.15366   0.15304  -0.08520
H    -1.59783   1.34437  -1.22346
H    -3.03611   0.94366  -0.19814
H    -1.57742   1.77252   0.48393
H    -1.43516  -2.35284   0.60546
H    -2.76332  -1.72032  -0.44631
H    -2.74070  -1.29271   1.26944
