23
Generated by autodE on: 2022-07-27. E = -517.874483 Ha
C    -2.47809  -1.56577  -1.47800
N    -1.46666  -1.24045  -0.71506
C    -0.72152  -0.08024  -0.55694
C    -1.03612   1.06199  -1.35090
C    -0.16206   2.30097  -1.27810
O    -2.00669   1.07791  -2.15015
C     0.38064  -0.17919   0.42200
C     0.63955   0.84988   1.35180
C     1.67806   0.74053   2.27781
C     2.47547  -0.40831   2.31945
C     2.22295  -1.44629   1.41764
C     1.19747  -1.32965   0.47703
H    -2.86795  -2.57835  -1.37282
H    -2.88603  -0.83592  -2.16890
H    -1.15851  -1.99335  -0.09388
H     0.88098   2.09014  -1.00812
H    -0.56644   3.01136  -0.53808
H    -0.19714   2.79346  -2.26085
H     0.00410   1.73607   1.36460
H     1.85421   1.55443   2.98565
H     3.28378  -0.49432   3.04931
H     2.83938  -2.34863   1.43252
H     1.04378  -2.13895  -0.24179
