46
Generated by autodE on: 2022-05-31. E = -1118.005683 Ha. Imaginary frequency = -300.9 cm-1
C    -1.46768   3.41383  -1.53300
O    -1.64671   2.06558  -1.09464
C    -1.05017   1.70907   0.06021
O    -0.43730   2.52165   0.75359
C    -1.22380   0.31367   0.40384
C    -0.95274  -0.19646   1.81238
C    -2.26977   0.10927   2.59674
C    -3.29645  -0.86007   1.93811
C    -2.43026  -1.64177   0.89768
C    -1.08854  -1.72284   1.64516
C    -2.08318  -0.62281  -0.17478
F    -3.05682  -0.29139  -1.05743
C    -0.90560  -1.69669  -1.69257
N     0.35140  -1.63311  -1.23413
C     1.12142  -0.52819  -1.02710
C     0.99089   0.62337  -1.90697
C     1.92496   1.79767  -1.71891
O     0.15984   0.65417  -2.83103
C     2.23195  -0.69536  -0.05983
C     2.46577   0.26950   0.93859
C     3.48904   0.09490   1.87149
C     4.29429  -1.04833   1.83486
C     4.06674  -2.01785   0.85390
C     3.04923  -1.84217  -0.08663
H    -0.40493   3.63409  -1.70681
H    -1.86880   4.12330  -0.79407
H    -2.02314   3.50061  -2.47461
H    -0.03839   0.17690   2.28594
H    -2.55673   1.16675   2.51044
H    -2.13252  -0.11828   3.66498
H    -3.71763  -1.56346   2.67110
H    -4.13316  -0.33822   1.45227
H    -2.87500  -2.57364   0.52819
H    -0.27638  -2.18922   1.07886
H    -1.18170  -2.24061   2.61076
H    -1.35557  -2.69030  -1.69962
H    -1.21878  -0.95419  -2.41694
H     0.64965  -2.45200  -0.70386
H     2.95754   1.48889  -1.50641
H     1.58492   2.42062  -0.87667
H     1.89547   2.40703  -2.63208
H     1.82176   1.14638   1.00182
H     3.64866   0.85319   2.64183
H     5.09291  -1.18342   2.56791
H     4.69162  -2.91312   0.81114
H     2.90021  -2.59904  -0.86117
