38
Generated by autodE on: 2022-06-17. E = -768.743062 Ha
C    -2.24912   2.94953   0.38616
C    -2.66659   1.50664   0.24572
O    -3.85093   1.17174   0.16086
N    -1.66188   0.57951   0.22270
N    -0.35396   0.98736   0.11658
C     0.41803  -0.04736   0.06703
C     1.86763   0.13580  -0.12277
C     2.80927  -0.85226   0.22224
C     4.17618  -0.63047   0.03635
C     4.63127   0.57657  -0.49934
C     3.70548   1.56698  -0.84960
C     2.34222   1.34898  -0.66597
C    -0.34323  -1.35833   0.28174
C    -0.22043  -1.72355   1.77718
C     0.10817  -2.54309  -0.57701
C    -1.80130  -0.87754  -0.08388
C    -2.10316  -1.00039  -1.58449
C    -2.88831  -1.57387   0.72861
H    -1.57186   3.09343   1.23947
H    -1.71193   3.27891  -0.51640
H    -3.15388   3.55666   0.51492
H     2.48778  -1.79778   0.65466
H     4.88871  -1.40973   0.31634
H     5.70045   0.74539  -0.64732
H     4.04952   2.51249  -1.27556
H     1.62207   2.11652  -0.95162
H    -0.61819  -0.92759   2.42307
H     0.83311  -1.88169   2.04589
H    -0.76369  -2.65417   1.99537
H     1.03295  -2.98796  -0.18745
H    -0.66245  -3.32905  -0.55464
H     0.28300  -2.26114  -1.62394
H    -3.04226  -0.47504  -1.80843
H    -2.22403  -2.05276  -1.87545
H    -1.30153  -0.55892  -2.19489
H    -2.75478  -2.66296   0.64198
H    -3.88324  -1.31810   0.34703
H    -2.84947  -1.30346   1.79167
