20
Generated by autodE on: 2022-06-17. E = -532.686766 Ha
C     4.71162   0.65413  -0.05393
C     3.28740   0.17012  -0.10318
O     3.00325  -1.00982  -0.33138
N     2.35897   1.16122   0.13188
N     1.14530   0.74159   0.09638
C     0.02917   0.41878   0.07704
C    -1.33800   0.03451   0.05892
C    -2.34698   1.01276   0.17667
C    -3.68247   0.61770   0.15954
C    -4.01749  -0.73470   0.02554
C    -3.01368  -1.70295  -0.09261
C    -1.67222  -1.32913  -0.07657
H     4.77955   1.73337   0.13036
H     5.20835   0.40750  -1.00557
H     5.24660   0.11064   0.74137
H    -2.07356   2.06385   0.27974
H    -4.46800   1.37057   0.25105
H    -5.06723  -1.03574   0.01282
H    -3.27806  -2.75714  -0.19721
H    -0.87889  -2.07272  -0.16673
