18
Generated by autodE on: 2022-06-17. E = -235.968069 Ha
C    -1.71230  -0.57800  -0.78717
C    -0.66434   0.12387   0.04269
C    -1.27898   1.13595   0.97941
C     0.66434  -0.12386  -0.04271
C     1.71227   0.57792   0.78726
C     1.27902  -1.13587  -0.97950
H    -2.44391  -1.08472  -0.13238
H    -1.31288  -1.32475  -1.48377
H    -2.29121   0.15662  -1.37540
H    -0.55529   1.66981   1.60680
H    -1.85107   1.88936   0.40851
H    -2.00869   0.64568   1.64865
H     1.31276   1.32432   1.48420
H     2.29130  -0.15684   1.37519
H     2.44377   1.08500   0.13263
H     2.00963  -0.64571  -1.64782
H     0.55546  -1.66877  -1.60787
H     1.85007  -1.89007  -0.40861
