23
Generated by autodE on: 2022-06-17. E = -351.521382 Ha
C    -0.79057   2.21609  -2.96056
C    -0.76115   1.08615  -2.22015
C    -1.37792  -0.19482  -2.72092
C    -0.12150   1.09063  -0.90599
C    -0.02604   0.02673  -0.06939
C     0.62072   0.08556   1.22561
C     0.75675  -0.92779   2.11799
C     1.46076  -0.70965   3.42742
C     0.24229  -2.32297   1.90374
H    -1.26248   2.24064  -3.94675
H    -0.34184   3.14459  -2.59417
H    -1.82348  -0.05963  -3.71654
H    -0.62651  -0.99944  -2.78395
H    -2.16395  -0.55235  -2.03513
H     0.31211   2.04633  -0.58747
H    -0.45557  -0.92947  -0.38037
H     1.04150   1.06037   1.50054
H     2.32269  -1.39383   3.52682
H     1.82179   0.32334   3.53864
H     0.79068  -0.93918   4.27543
H    -0.28180  -2.45951   0.94916
H    -0.44810  -2.60452   2.71835
H     1.07498  -3.04736   1.94548
