15
Generated by autodE on: 2022-06-17. E = -433.372089 Ha
C    -3.01800  -0.16136   0.41577
O    -1.83195   0.58491   0.13510
C    -0.68632  -0.12656   0.05851
O    -0.65981  -1.33745   0.23035
N     0.32424   0.74688  -0.26477
N     1.57236   0.33308  -0.25114
C     2.02324  -0.97629   0.29051
N     2.50323   1.07248  -0.67813
H    -2.94160  -0.67006   1.38851
H    -3.83661   0.56833   0.43874
H    -3.20510  -0.91049  -0.36838
H     3.11533  -0.94336   0.30562
H     1.65298  -1.77334  -0.36115
H     1.60880  -1.10657   1.29533
H     2.04908   1.93413  -1.01990
