15
Generated by autodE on: 2022-07-27. E = -433.373933 Ha
C     0.90646   2.53250  -0.19930
O     0.47298   1.76199   0.92820
C     0.05591   0.49360   0.77681
O    -0.29787  -0.11369   1.79205
N     0.08260   0.04512  -0.51192
N    -0.31013  -1.20724  -0.73203
C    -0.24091  -1.56353  -2.16238
N    -0.71315  -2.09363   0.06343
H     0.09521   2.65187  -0.93105
H     1.19079   3.51244   0.20478
H     1.77294   2.06470  -0.68726
H    -0.57538  -2.59854  -2.27411
H     0.79710  -1.43941  -2.49438
H    -0.88708  -0.87161  -2.71646
H    -0.69812  -1.66861   1.00944
