65
Generated by autodE on: 2022-06-10. E = -1532.742541 Ha
C   -10.77441  -1.90197   0.54248
N   -10.07731  -0.93981   1.36568
C   -10.53524   0.30630   1.56297
O   -11.63540   0.69602   1.15722
C    -9.57375   1.21784   2.37537
C    -8.37406   1.74615   1.57507
C    -7.21879   1.25496   2.09513
C    -5.75587   1.32899   1.59914
C    -4.77571   0.44146   2.41137
C    -5.64626   0.71748   0.18025
C    -5.14981   2.77903   1.71211
C    -6.06806   3.98762   1.88616
C    -6.71980   4.50685   0.60961
C    -7.49068   3.48661  -0.22768
C    -8.68716   2.70873   0.40502
C    -9.35406   1.93965  -0.75965
C    -8.93694   0.63205  -1.04404
C    -9.46528  -0.07754  -2.12519
C   -10.42664   0.50980  -2.95000
C   -10.84243   1.81749  -2.68529
C   -10.30798   2.52727  -1.60735
C    -9.64622   3.80845   0.96010
F   -10.91951   3.41290   1.11841
F    -9.23338   4.25806   2.16405
F    -9.70385   4.89242   0.15549
C    -7.52458   0.58032   3.44610
C    -7.01954   1.46565   4.60005
C    -7.06120  -0.90534   3.48329
C    -6.44662  -1.45680   4.73399
O    -7.30723  -1.62585   2.52432
N    -8.98101   0.46464   3.45346
C    -9.72018   0.43346   4.69396
H   -11.54234  -2.45650   1.10956
H   -11.27225  -1.39407  -0.29588
H   -10.05323  -2.62643   0.14094
H    -9.15279  -1.16276   1.73647
H   -10.20726   2.03216   2.76134
H    -4.97797  -0.63029   2.29758
H    -4.73554   0.68963   3.47719
H    -3.76529   0.61238   2.01056
H    -5.94677  -0.34077   0.21434
H    -4.59828   0.75971  -0.15459
H    -6.25852   1.19621  -0.58557
H    -4.48668   2.76925   2.58973
H    -4.48958   2.93952   0.84249
H    -6.83176   3.76955   2.64618
H    -5.45872   4.80672   2.30363
H    -7.35999   5.36836   0.85257
H    -5.92736   4.90114  -0.05014
H    -7.90045   4.00510  -1.10502
H    -6.79644   2.75248  -0.63651
H    -8.20642   0.14869  -0.40094
H    -9.12602  -1.09866  -2.31326
H   -10.84751  -0.04417  -3.79230
H   -11.59020   2.29558  -3.32255
H   -10.64871   3.54849  -1.44363
H    -5.94035   1.65016   4.55728
H    -7.24697   1.02080   5.57797
H    -7.52980   2.43769   4.54108
H    -5.57110  -0.86852   5.04337
H    -6.17069  -2.50900   4.58762
H    -7.18525  -1.37956   5.54997
H   -10.74256   0.07235   4.49685
H    -9.26071  -0.27106   5.40220
H    -9.80562   1.42160   5.19056
