39
Generated by autodE on: 2022-06-10. E = -959.173739 Ha
C    -2.28842  -2.22713  -3.14477
C    -1.01421  -1.39653  -2.92909
C     0.18194  -2.08817  -3.61035
C    -0.72005  -1.18843  -1.50584
C    -0.38536  -0.65090  -0.47223
C     0.02944   0.42272   0.43563
C     1.23128   0.03586   1.31110
C     2.04335   1.01947   1.89540
C     3.11802   0.65751   2.71176
C     3.39460  -0.69047   2.95848
C     2.58682  -1.67531   2.38363
C     1.51257  -1.31267   1.56706
C    -1.14638   0.74602   1.38443
F    -0.86196   1.77525   2.20191
F    -1.44818  -0.30721   2.16549
F    -2.27118   1.07382   0.72337
C     0.34617   1.65690  -0.48266
C    -0.54909   1.89214  -1.71784
C    -0.21505   1.12508  -3.02991
C    -1.21359   0.04578  -3.49784
H    -2.15694  -3.25479  -2.77213
H    -3.14740  -1.77666  -2.62444
H    -2.52383  -2.27855  -4.21948
H     1.10064  -1.49122  -3.50970
H     0.36715  -3.07821  -3.16630
H    -0.02907  -2.22344  -4.68278
H     1.84252   2.07660   1.72054
H     3.74258   1.43590   3.15641
H     4.23682  -0.97159   3.59509
H     2.79276  -2.73226   2.56839
H     0.88642  -2.08646   1.11866
H     0.32681   2.55726   0.14853
H     1.38749   1.53410  -0.81483
H    -0.45814   2.96790  -1.93586
H    -1.60566   1.73825  -1.45425
H    -0.16313   1.87122  -3.83832
H     0.79950   0.69701  -2.96700
H    -2.23502   0.37649  -3.24603
H    -1.17551  -0.03931  -4.59678
