26
Generated by autodE on: 2022-06-10. E = -573.488496 Ha
C     4.26194   0.42244   0.49208
N     2.82426   0.44796   0.64362
C     2.00045  -0.04859  -0.31727
O     2.48338  -0.54273  -1.35575
C     0.58766   0.08613   0.05381
N    -0.49235  -0.27928  -0.64378
C    -0.30905  -0.87714  -1.98674
C    -1.80125  -0.14821  -0.21772
C    -2.88617  -0.57407  -1.17006
C    -2.12473   0.35565   1.09152
C    -3.58902   0.41837   1.49673
O    -1.27961   0.74304   1.93329
H     4.58454   0.98626  -0.39875
H     4.63917  -0.60815   0.38699
H     4.72063   0.87537   1.37956
H     2.42319   0.85172   1.48288
H     0.36727   0.52933   1.01886
H    -0.78156  -1.86566  -2.00727
H    -0.79090  -0.23578  -2.73393
H     0.75801  -0.96129  -2.19180
H    -2.83329  -0.04168  -2.13383
H    -2.85510  -1.65330  -1.39842
H    -3.87247  -0.36564  -0.74740
H    -3.63880   0.78734   2.52957
H    -4.07415  -0.56880   1.44493
H    -4.16133   1.10085   0.84842
