26
Generated by autodE on: 2022-07-27. E = -573.488219 Ha
C     0.72075  -0.41780  -3.05870
N     0.25319   0.24868  -1.85969
C    -1.00828   0.05542  -1.41487
O    -1.88400  -0.47446  -2.11525
C    -1.39509   0.64273  -0.11634
N    -0.61564   0.95792   0.90640
C    -1.15347   1.93231   1.87802
C     0.62080   0.39423   1.18517
C     1.56137   1.16036   2.07401
C     0.79352  -1.00277   0.91703
C     1.99106  -1.68305   1.55700
O    -0.00149  -1.69331   0.23924
H     0.71497  -1.51534  -2.94122
H     1.74698  -0.09265  -3.27109
H     0.08633  -0.16437  -3.92032
H     0.95110   0.52428  -1.17357
H    -2.44226   0.93892  -0.04775
H    -2.21354   2.10094   1.66119
H    -0.61326   2.88260   1.77622
H    -1.02935   1.55006   2.89800
H     2.59452   0.82818   1.90871
H     1.34899   1.03963   3.15252
H     1.53576   2.23724   1.85310
H     2.04077  -1.51041   2.64313
H     1.92593  -2.76160   1.36189
H     2.92969  -1.30150   1.12250
