65
Generated by autodE on: 2022-06-10. E = -1532.650042 Ha. Imaginary frequency = -255.8 cm-1
C    -8.56423  -1.95218  -0.56830
N    -8.68134  -0.87382   0.38234
C    -9.85878  -0.50835   0.89589
O   -10.93631  -0.96806   0.48627
C    -9.94309   0.57022   1.95191
C    -8.29722   1.94570   1.28948
C    -7.23191   1.48588   1.74345
C    -5.74402   1.42711   1.76894
C    -5.17569   1.48178   3.19507
C    -5.27159   0.13318   1.08050
C    -5.22574   2.65485   0.95984
C    -5.85643   3.99946   1.36949
C    -6.77592   4.64100   0.31803
C    -7.81962   3.76405  -0.38708
C    -8.92630   2.99875   0.42056
C    -9.86837   2.35637  -0.62048
C    -9.30181   1.42918  -1.51180
C   -10.07546   0.79041  -2.47988
C   -11.44294   1.06380  -2.58004
C   -12.01503   1.99419  -1.71268
C   -11.23625   2.63975  -0.74529
C    -9.65516   4.01403   1.32173
F   -10.75277   3.51983   1.93040
F   -10.05772   5.09434   0.62526
F    -8.86184   4.46335   2.31350
C    -8.41022  -0.10161   3.70959
C    -7.83031   0.41887   5.00288
C    -8.14166  -1.48721   3.35144
C    -6.86687  -2.13443   3.85570
O    -8.94917  -2.18833   2.72058
N    -9.56112   0.50527   3.24703
C   -10.17255   1.52980   4.11262
H    -8.88421  -2.91142  -0.12738
H    -7.51473  -2.03945  -0.87799
H    -9.18150  -1.76251  -1.46040
H    -7.84746  -0.43794   0.75779
H   -10.87466   1.11600   1.81037
H    -4.07623   1.52298   3.14914
H    -5.53074   2.36783   3.74135
H    -5.45836   0.59193   3.76823
H    -4.17106   0.10834   1.03936
H    -5.61418  -0.75622   1.62922
H    -5.65263   0.07258   0.04898
H    -5.40292   2.46177  -0.11006
H    -4.13127   2.68475   1.08552
H    -6.41419   3.87342   2.30877
H    -5.06196   4.72893   1.59428
H    -7.25928   5.52501   0.76217
H    -6.14376   5.03104  -0.49881
H    -7.29933   2.99505  -0.97055
H    -8.34779   4.39407  -1.11864
H    -8.24314   1.18325  -1.43511
H    -9.60697   0.06985  -3.15385
H   -12.05444   0.55849  -3.33112
H   -13.08013   2.22766  -1.78140
H   -11.72750   3.35893  -0.09405
H    -6.85520  -0.03824   5.19330
H    -8.46860   0.17253   5.87078
H    -7.68544   1.50705   4.99233
H    -7.00508  -2.46519   4.89921
H    -5.99869  -1.46366   3.83074
H    -6.66630  -3.02282   3.24169
H   -11.15460   1.79534   3.71338
H   -10.29551   1.13557   5.12677
H    -9.54068   2.42821   4.14540
