17
Generated by autodE on: 2022-10-21. E = -2995.673356 Ha
C     2.57209   0.21974  -1.17751
O     1.35854   0.69871  -1.76308
C     0.20148   0.43246  -1.15562
C    -0.21504  -0.20493  -0.04416
Br    0.67630  -1.02943   1.39544
C    -1.73883   0.07129   0.00640
C    -1.93393   1.57834   0.29916
C    -1.51774   2.19690  -0.80982
C    -1.08638   1.05185  -1.75404
O    -2.04377   0.03993  -1.40057
H     3.38021   0.52672  -1.85303
H     2.55897  -0.87741  -1.09409
H     2.73147   0.66764  -0.18537
H    -2.34001  -0.64202   0.58083
H    -2.28112   1.99498   1.24411
H    -1.42480   3.25987  -1.02877
H    -1.05245   1.25383  -2.83034
