36
Generated by autodE on: 2022-10-21. E = -3415.222331 Ha. Imaginary frequency = -204.4 cm-1
C    -3.09485   1.36876   1.93041
N    -2.99493   0.14247   1.16333
C    -3.26272   0.16048  -0.17543
O    -3.79774   1.14180  -0.72484
C    -2.89530  -1.02952  -0.95578
C    -3.25539  -1.08956  -2.41218
N    -2.52609  -2.13288  -0.33508
C    -1.72766  -2.92586   0.08598
C    -1.63209  -4.19921   0.80441
C     0.26754  -1.71871  -0.63680
C     0.79966  -1.41494   0.77937
O    -0.16798  -0.44837   1.22675
C     0.01415   0.44161   0.10164
C     1.53915   0.68455   0.21569
Br    2.31939   2.27246  -0.43501
C     2.03779  -0.49810   0.62795
O     3.24035  -1.03894   0.84013
C     4.40429  -0.23591   0.63181
C    -0.22356  -0.52662  -1.07421
H    -2.36958   2.13600   1.60336
H    -4.10148   1.80019   1.83713
H    -2.90969   1.14513   2.98935
H    -2.24467  -0.48648   1.44561
H    -4.32604  -1.31162  -2.57295
H    -3.04861  -0.11863  -2.88414
H    -2.66577  -1.86465  -2.92320
H    -1.16326  -4.01119   1.78407
H    -0.96111  -4.87946   0.25761
H    -2.61258  -4.67957   0.95406
H     0.55893  -2.59014  -1.22078
H     0.92048  -2.24909   1.47929
H    -0.61828   1.33275   0.17391
H     5.26335  -0.86631   0.89351
H     4.48363   0.07595  -0.42018
H     4.38773   0.65163   1.28244
H    -0.46799  -0.21437  -2.08688
