19
Generated by autodE on: 2022-05-30. E = -995.131163 Ha
C     3.68738   0.07176   1.03850
O     2.29473   0.40149   0.96895
C     1.60245  -0.11992  -0.05956
O     2.10279  -0.83626  -0.90851
C     0.20000   0.28514  -0.00557
C    -0.85576  -0.17916  -0.70080
Cl   -0.95825  -1.38075  -1.90702
C    -2.10083   0.51033  -0.09556
C    -2.28312  -0.08865   1.31815
C    -1.24930   0.38287   2.02030
C    -0.44838   1.24912   1.02215
O    -1.52178   1.78280   0.22112
H     4.21285   0.42336   0.13849
H     3.82269  -1.01546   1.13605
H     4.07559   0.58248   1.92735
H    -2.97830   0.58487  -0.74559
H    -3.07119  -0.78362   1.60414
H    -0.95464   0.18432   3.04994
H     0.19973   2.03165   1.42683
