35
Generated by autodE on: 2022-05-30. E = -1541.635562 Ha. Imaginary frequency = -216.2 cm-1
C     3.62964   2.52239  -0.53999
N     3.00854   1.21212  -0.55210
C     2.47010   0.68012   0.55748
O     2.60331   1.13601   1.69978
C     1.64335  -0.53911   0.36936
C     1.29679  -1.29675   1.51280
N     1.01888  -1.88441   2.47985
O     1.47976  -0.97216  -0.86374
C     0.67429  -1.87852  -1.35952
C     0.27779  -3.04333  -0.66170
N    -0.06265  -4.05525  -0.19406
C    -1.35035  -0.37962  -0.98124
Cl   -1.44105   0.15447  -2.61864
C    -2.39216  -1.37237  -0.41423
C    -3.60248  -0.50885   0.01906
C    -3.17184   0.17068   1.08613
C    -1.70575  -0.28044   1.28368
O    -1.78768  -1.64671   0.84937
C    -0.91739   0.33879   0.10888
C    -0.33308   1.68260   0.12433
O     0.17708   2.24640  -0.82666
O    -0.43828   2.22832   1.34589
C     0.11479   3.54009   1.52317
H     2.87526   3.32228  -0.62635
H     4.32849   2.60199  -1.38276
H     4.18183   2.66091   0.39783
H     2.70954   0.83676  -1.44746
H     0.65703  -1.89456  -2.44969
H    -2.58140  -2.27532  -1.00293
H    -4.55868  -0.47158  -0.50045
H    -3.67632   0.92728   1.68526
H    -1.26502  -0.18713   2.27939
H     1.20648   3.51043   1.39963
H    -0.32226   4.24572   0.80270
H    -0.13967   3.83641   2.54725
