60
Generated by autodE on: 2022-06-09. E = -4232.057945 Ha
C     5.07655  -7.97344   1.29347
O     5.02508  -9.40581   1.42298
C     5.99944 -10.09949   0.85311
O     6.89418  -9.61803   0.19238
C     5.81644 -11.62755   1.03396
C     4.86263 -11.93591   2.24396
C     3.42234 -12.23710   1.96051
O     5.30935 -11.94529   3.37556
C     7.17304 -12.31507   1.22567
C     7.36164 -13.27847   0.29170
C     6.12499 -13.32855  -0.65707
C     5.24127 -14.57120  -0.41352
C     6.52258 -13.12780  -2.12428
C     7.09080 -11.89958  -2.49990
C     7.46529 -11.65973  -3.82092
C     7.26804 -12.64438  -4.79563
C     6.68750 -13.86218  -4.43470
C     6.31346 -14.10027  -3.10781
N     5.34836 -12.17373  -0.20136
C     4.39736 -11.50151  -1.05108
C     8.60956 -14.15574   0.10677
Br    8.19262 -15.97242  -0.66946
C     9.60097 -13.52177  -0.94038
F     9.61564 -12.18506  -0.82122
F     9.31557 -13.80017  -2.21318
F    10.85736 -13.94848  -0.73517
C     9.40545 -14.49620   1.38340
C     8.66999 -15.17396   2.53690
C     7.64044 -14.33611   3.29271
C     8.09847 -12.92211   3.62400
C     8.05730 -11.87232   2.41674
C     9.42180 -11.49021   1.98736
N    10.48615 -11.10787   1.73353
C     7.60252 -10.59652   3.02073
N     7.37410  -9.58407   3.53668
H     5.06196  -7.68882   0.23247
H     5.98920  -7.59157   1.77186
H     4.18634  -7.59419   1.80678
H     2.93529 -11.33365   1.56190
H     2.92703 -12.53777   2.89245
H     3.32895 -13.02267   1.19884
H     4.27119 -14.40049  -0.90347
H     5.65213 -15.50979  -0.79115
H     5.06849 -14.67846   0.66670
H     7.24996 -11.13190  -1.74136
H     7.91341 -10.70072  -4.09215
H     7.56164 -12.46030  -5.83194
H     6.52263 -14.63587  -5.18853
H     5.86458 -15.05850  -2.84974
H     3.86635 -12.23681  -1.67400
H     4.85443 -10.75591  -1.72984
H     3.64086 -10.98286  -0.44820
H    10.22083 -15.15838   1.07181
H     9.91775 -13.59403   1.73721
H     9.45789 -15.47293   3.24673
H     8.20352 -16.10611   2.18420
H     7.43337 -14.83392   4.25317
H     6.67793 -14.30546   2.76374
H     9.12354 -12.92129   4.02131
H     7.44471 -12.51224   4.39884
