35
Generated by autodE on: 2022-07-27. E = -824.533842 Ha
C     1.05233   3.04203   3.21245
O    -0.04970   2.30980   2.67701
C     0.19137   1.60575   1.54222
O     1.31324   1.61761   1.01770
C    -0.93362   0.87506   1.03504
C    -2.23160   0.72170   1.60966
C    -3.16267  -0.27931   0.93614
O    -2.62383   1.30811   2.63990
N    -0.62731   0.18924  -0.20171
C    -1.03369   0.88873  -1.42960
C     0.11792  -0.88331  -0.20433
C     0.45458  -1.58301   1.06184
C     0.72189  -1.38909  -1.45503
C     1.57649  -0.55271  -2.19430
C     2.20200  -1.04003  -3.34154
C     1.96524  -2.35147  -3.76710
C     1.11687  -3.18534  -3.03127
C     0.50954  -2.71471  -1.86647
H     1.88617   2.37333   3.47563
H     1.41489   3.79728   2.49841
H     0.67519   3.53761   4.11604
H    -3.33365  -0.04840  -0.12653
H    -2.73690  -1.29551   0.98176
H    -4.12662  -0.27096   1.46209
H    -0.33346   1.71337  -1.62320
H    -1.05730   0.20570  -2.28548
H    -2.02933   1.31451  -1.26171
H     0.57439  -2.65844   0.87410
H     1.43212  -1.20227   1.40642
H    -0.28354  -1.39526   1.85059
H     1.76761   0.46476  -1.84918
H     2.87716  -0.39279  -3.90536
H     2.44908  -2.72712  -4.67154
H     0.93345  -4.21017  -3.36094
H    -0.14536  -3.36660  -1.28482
