44
Generated by autodE on: 2022-06-02. E = -1386.542476 Ha
C    -2.15029   2.95659   0.66434
C    -2.57285   1.96413  -0.37446
O    -3.68635   1.92405  -0.85294
C    -1.52623   0.90373  -0.84482
C    -1.86531   0.54729  -2.24942
N    -2.04516   0.29032  -3.36602
C    -1.62348  -0.37383   0.04237
C    -1.97744  -0.14093   1.55497
C    -2.18017  -1.50901   2.17761
C    -0.95257  -2.02473   2.29912
C    -0.01351  -0.96299   1.74578
O    -0.70148   0.24250   2.08717
C    -0.15941  -0.90503   0.16521
C     0.04922  -2.25325  -0.52916
F    -0.27033  -2.19798  -1.83715
F    -0.69777  -3.23607  -0.01090
F     1.33379  -2.65092  -0.44248
C     0.76355   0.24547  -0.45966
C     1.39456  -0.14690  -1.75452
N     1.90743  -0.30248  -2.78288
C     1.92440   0.67060   0.46025
C     1.80411   1.80314   1.27215
C     2.84281   2.16007   2.13619
C     4.00576   1.38802   2.19843
C     4.12972   0.25797   1.38419
C     3.09648  -0.09641   0.51466
N    -0.16119   1.35294  -0.70681
C     0.29291   2.41452  -1.59507
H    -1.68624   3.81451   0.14924
H    -3.03906   3.31737   1.19859
H    -1.40231   2.55170   1.35530
H    -2.32155  -1.08489  -0.40946
H    -2.74814   0.60639   1.76138
H    -3.14640  -1.96678   2.38736
H    -0.64938  -3.01339   2.63894
H     1.01755  -0.96282   2.10485
H     0.89661   2.40261   1.22695
H     2.73918   3.04816   2.76372
H     4.81595   1.66816   2.87552
H     5.03599  -0.35049   1.42135
H     3.20479  -0.98144  -0.11419
H     0.33873   2.09640  -2.65281
H     1.29386   2.74499  -1.28901
H    -0.38295   3.27632  -1.52494
