28
Generated by autodE on: 2022-07-27. E = -741.761989 Ha
C    -4.04686   1.03693  -1.57644
C    -2.76455   1.46120  -0.89489
O    -2.55088   2.65507  -0.65921
C    -1.82637   0.38719  -0.58179
C    -2.14021  -0.92791  -0.98710
N    -2.43010  -2.01652  -1.30023
N    -0.61098   0.58022   0.08006
C    -0.56302   1.58640   1.16021
C     0.47265  -0.14836  -0.20313
C     0.53367  -0.79845  -1.47162
N     0.66499  -1.30646  -2.51119
C     1.62282  -0.33463   0.69188
C     1.45227  -0.53715   2.07654
C     2.56191  -0.75154   2.89116
C     3.84874  -0.76934   2.34193
C     4.02397  -0.58558   0.96609
C     2.91999  -0.37935   0.14202
H    -4.67632   1.92303  -1.72690
H    -4.59028   0.29521  -0.97031
H    -3.83564   0.57014  -2.55155
H     0.47675   1.83264   1.38759
H    -1.09281   2.46944   0.79402
H    -1.07363   1.19128   2.04778
H     0.45283  -0.55432   2.51143
H     2.41993  -0.91556   3.96136
H     4.71508  -0.93643   2.98572
H     5.02590  -0.60443   0.53255
H     3.05955  -0.23818  -0.93153
