28
Generated by autodE on: 2022-06-02. E = -741.767435 Ha
C     3.72314  -0.31816   1.62596
C     2.30521  -0.06567   1.16874
O     1.62872   0.84337   1.66425
C     1.80581  -0.91358   0.09761
C     2.65654  -1.86197  -0.50884
N     3.37971  -2.65126  -0.97847
N     0.59307  -0.62339  -0.52533
C     0.53088  -0.73829  -1.99395
C    -0.45884  -0.20620   0.18079
C    -0.54672  -0.59322   1.55284
N    -0.72493  -0.93818   2.64973
C    -1.57157   0.57753  -0.36699
C    -1.34505   1.59584  -1.31547
C    -2.41208   2.35077  -1.79680
C    -3.71204   2.10694  -1.33986
C    -3.94200   1.11009  -0.38534
C    -2.88034   0.35481   0.10714
H     3.96296   0.37244   2.44413
H     3.83219  -1.35661   1.97701
H     4.43831  -0.17384   0.80126
H    -0.50919  -0.70993  -2.32756
H     1.11364   0.06719  -2.45881
H     0.97041  -1.70544  -2.26982
H    -0.33205   1.81590  -1.65296
H    -2.22634   3.14270  -2.52526
H    -4.54523   2.70195  -1.72027
H    -4.95403   0.92127  -0.02152
H    -3.06327  -0.42117   0.85277
