16
Generated by autodE on: 2022-06-02. E = -644.713702 Ha
F    -1.96713  -1.48996  -0.34732
C    -1.50146  -0.25916  -0.07699
F    -1.81955   0.53016  -1.12937
F    -2.20757   0.21256   0.97363
C    -0.04490  -0.24325   0.17942
C     0.85008  -1.22730   0.07145
C     2.21047  -0.53209   0.31219
C     2.47241   0.37338  -0.91467
C     1.57533   1.35788  -0.81284
C     0.78020   1.03616   0.47329
O     1.81710   0.45827   1.28336
H     0.70305  -2.27251  -0.19631
H     3.03487  -1.15893   0.66727
H     3.20246   0.17032  -1.69719
H     1.36663   2.18838  -1.48595
H     0.26030   1.85806   0.97632
