44
Generated by autodE on: 2022-06-02. E = -1386.463591 Ha. Imaginary frequency = -264.0 cm-1
C    -3.71007   1.78956  -1.80716
C    -2.46517   2.08688  -1.01288
O    -2.46911   2.92883  -0.12326
C    -1.27393   1.23559  -1.29729
C    -1.39080   0.43076  -2.47468
N    -1.60026  -0.20039  -3.43008
C    -1.77982  -0.50889   0.10316
C    -2.24182   0.19246   1.39807
C    -2.56673  -0.93058   2.39673
C    -1.38141  -1.45108   2.73152
C    -0.34732  -0.64241   1.92315
O    -0.97259   0.64874   1.90071
C    -0.52911  -1.03339   0.43484
C    -0.04523  -2.36059  -0.03061
F     1.30235  -2.46767   0.00680
F    -0.50504  -3.36217   0.76539
F    -0.44269  -2.65726  -1.27891
C     0.95843   0.58143  -0.68558
C     1.17821  -0.26635  -1.82564
N     1.48754  -0.91512  -2.73919
C     2.15022   0.73742   0.18253
C     2.06260   1.32055   1.46523
C     3.18379   1.39831   2.28841
C     4.41575   0.89572   1.85914
C     4.51579   0.30867   0.59463
C     3.39827   0.22772  -0.23352
N    -0.01578   1.54277  -0.78962
C     0.22686   2.89485  -0.24298
H    -3.97307   0.72243  -1.74235
H    -3.55452   2.02389  -2.87201
H    -4.53178   2.39850  -1.41101
H    -2.47976  -0.95760  -0.60041
H    -2.96333   1.00794   1.31080
H    -3.57100  -1.23523   2.68876
H    -1.14790  -2.29382   3.38025
H     0.67611  -0.60714   2.30683
H     1.11188   1.69558   1.83250
H     3.08901   1.84986   3.27819
H     5.29181   0.95721   2.50853
H     5.47144  -0.08875   0.24638
H     3.50031  -0.23391  -1.21535
H    -0.17103   3.01347   0.76785
H    -0.25674   3.61853  -0.90517
H     1.30545   3.07461  -0.25416
