38
Generated by autodE on: 2022-10-21. E = -1047.166579 Ha
C    -4.61845  -0.78886  -0.49906
O    -3.86071   0.38299  -0.15007
C    -2.63670   0.23680   0.31938
C    -1.76837   1.21799   0.71100
C    -1.85553   2.66243   0.63550
C    -3.20220   3.29387   0.39564
O    -0.83261   3.35010   0.74939
C    -0.46784   0.47688   0.96250
O    -0.92280  -0.80620   1.42084
C    -1.83124  -1.06280   0.35835
C    -0.87551  -1.00237  -0.89013
C     0.06936  -2.17473  -0.96897
C    -0.30762  -3.49583  -1.30913
N    -0.66642  -4.56917  -1.59053
N     1.30371  -1.87570  -0.67277
N     1.39763  -0.57775  -0.40324
C     2.62263   0.03131  -0.10182
C     2.67094   1.41509   0.15038
C     3.89452   2.02245   0.44185
C     5.07399   1.27499   0.48733
C     5.01855  -0.10128   0.23601
C     3.80787  -0.72594  -0.05709
C     0.10793   0.12141  -0.44671
H    -5.58266  -0.42293  -0.86980
H    -4.77482  -1.42186   0.38628
H    -4.10837  -1.35728  -1.29005
H    -3.12349   4.38469   0.49362
H    -3.95440   2.90032   1.09615
H    -3.55051   3.04133  -0.61961
H     0.23689   0.92850   1.66642
H    -2.36979  -2.00571   0.49231
H    -1.42220  -0.82308  -1.82410
H     1.76592   2.02200   0.12995
H     3.91791   3.09717   0.63702
H     6.02621   1.75737   0.71745
H     5.93151  -0.70088   0.26767
H     3.76813  -1.79642  -0.25367
H     0.15911   0.99504  -1.10577
