22
Generated by autodE on: 2022-10-21. E = -574.825633 Ha
C     2.93676  -0.25277   1.10917
O     1.57699  -0.70567   0.99496
C     0.77847  -0.12636   0.12029
C    -0.53403  -0.40077  -0.13844
C    -1.46016  -1.33458   0.45375
C    -0.92700  -2.33913   1.44835
O    -2.66373  -1.30825   0.15798
C    -0.92600   0.69320  -1.15335
C    -0.91333   2.04926  -0.41580
C     0.37492   2.29731  -0.15889
C     1.12970   1.09683  -0.76964
O     0.30659   0.80001  -1.90372
H     3.37956  -0.83578   1.92489
H     3.48458  -0.44441   0.17512
H     2.96839   0.81756   1.35861
H    -1.72840  -3.03230   1.73717
H    -0.55167  -1.81833   2.34447
H    -0.07742  -2.89897   1.02796
H    -1.78565   0.46977  -1.79270
H    -1.79956   2.61318  -0.12596
H     0.83885   3.10830   0.40067
H     2.18156   1.23506  -1.03670
