38
Generated by autodE on: 2022-10-21. E = -1047.038494 Ha. Imaginary frequency = -267.7 cm-1
C    -4.40919  -1.11134   0.70648
O    -3.78727   0.18346   0.77627
C    -2.48789   0.28296   0.57772
C    -1.71368   1.40914   0.60086
C    -2.03788   2.80088   0.80113
C    -3.45286   3.15891   1.19017
O    -1.17551   3.67902   0.65337
C    -0.32580   0.88970   0.17804
O    -0.33465  -0.41275   0.80623
C    -1.53289  -0.87152   0.17229
C    -1.18824  -0.63994  -1.31522
C     0.46561  -2.41450  -1.44432
C     0.09073  -3.70708  -1.74965
N    -0.34007  -4.77251  -1.96888
N     1.45613  -1.70879  -1.41099
N     1.91783  -0.56026  -1.44109
C     2.75610  -0.10302  -0.41224
C     3.27535   1.19454  -0.54942
C     4.06363   1.73471   0.46563
C     4.34337   0.98662   1.61517
C     3.82650  -0.30836   1.74638
C     3.03184  -0.85773   0.74178
C    -0.41687   0.48064  -1.30242
H    -5.48280  -0.93609   0.84047
H    -4.03440  -1.76017   1.51129
H    -4.22757  -1.57429  -0.27415
H    -3.52005   4.23778   1.38411
H    -3.77074   2.59562   2.08108
H    -4.14723   2.88710   0.37848
H     0.53230   1.49387   0.48695
H    -1.80755  -1.88422   0.48068
H    -1.72160  -1.09011  -2.15067
H     3.04220   1.76582  -1.44966
H     4.46297   2.74571   0.35881
H     4.96335   1.41096   2.40779
H     4.04301  -0.89529   2.64197
H     2.62204  -1.86418   0.84442
H    -0.12009   1.11089  -2.13763
