33
Generated by autodE on: 2022-06-17. E = -727.380319 Ha
C     3.58719  -1.38029   0.03722
O     2.29821  -1.37141  -0.59722
C     1.45707  -0.39921  -0.23931
O     1.74848   0.47498   0.55584
C     0.10333  -0.53580  -0.92339
N    -0.40052   0.70149  -1.50309
C     0.58439   1.53752  -2.16799
N    -1.09815   1.43769  -0.44784
C    -2.29885   2.05933  -0.98932
C    -1.35268   0.49957   0.64924
C    -0.65067   0.96062   1.91594
O    -0.77531   0.41590   2.99391
C    -0.98087  -0.92258   0.11284
C    -0.49280  -1.92492   1.15940
C    -2.18941  -1.52142  -0.62194
H     3.47595  -1.48941   1.12572
H     4.12925  -0.44989  -0.18401
H     4.12301  -2.24118  -0.37843
H     0.19885  -1.30529  -1.70120
H     0.07959   2.35609  -2.70245
H     1.32578   1.98170  -1.47782
H     1.11472   0.92952  -2.91647
H    -3.02825   1.33214  -1.39570
H    -2.02439   2.75973  -1.79219
H    -2.78636   2.64412  -0.19561
H    -2.42250   0.49611   0.91738
H    -0.06282   1.89937   1.80100
H     0.37650  -1.57035   1.72861
H    -1.29326  -2.14412   1.88064
H    -0.21412  -2.86613   0.66117
H    -3.01673  -1.68866   0.08449
H    -1.91717  -2.49009  -1.06879
H    -2.54770  -0.86311  -1.42403
