14
Generated by autodE on: 2022-06-17. E = -270.683222 Ha
C    -1.90305   1.37638   0.06517
C    -0.78160   0.38641   0.04723
C    -1.16311  -1.05038   0.26086
C     0.49948   0.80024  -0.15469
C     1.67531  -0.05620  -0.19421
O     1.70120  -1.27638  -0.04913
H    -1.56125   2.40853  -0.09261
H    -2.44111   1.31595   1.02760
H    -2.64380   1.11749  -0.71189
H    -0.64819  -1.46741   1.14087
H    -0.84997  -1.67182  -0.59311
H    -2.24802  -1.15664   0.39994
H     0.69273   1.86660  -0.30387
H     2.63111   0.49241  -0.37721
