19
Generated by autodE on: 2022-07-27. E = -456.657207 Ha
C    -1.81922   2.70428  -0.00907
N    -0.95796   1.56519   0.21044
N    -0.84278   0.73021  -0.75617
C    -1.56616   0.93123  -2.03819
C    -0.06956  -0.38405  -0.70121
C     0.72474  -0.78248   0.42400
O     0.87114  -0.23021   1.50985
O     1.36632  -1.95766   0.13142
C     2.20153  -2.49180   1.15553
H    -2.87133   2.42434  -0.19894
H    -1.49214   3.34308  -0.84927
H    -1.79582   3.31388   0.90331
H    -2.64353   0.97329  -1.83772
H    -1.24345   1.87940  -2.48549
H    -1.34242   0.10266  -2.71378
H    -0.06748  -1.00612  -1.58933
H     1.62414  -2.71235   2.06702
H     2.62483  -3.42054   0.75244
H     3.01446  -1.79459   1.41208
