19
Generated by autodE on: 2022-06-17. E = -456.665447 Ha
C    -2.63764   1.66219  -0.17794
N    -2.58297   0.23516  -0.01832
N    -1.39660  -0.26607   0.03688
C    -1.38475  -1.73580   0.19718
C    -0.23448   0.42100  -0.04012
C     1.07650  -0.16970   0.01788
O     1.39385  -1.34905   0.14439
O     2.01733   0.80942  -0.09402
C     3.37988   0.38520  -0.06172
H    -3.69167   1.96350  -0.21354
H    -2.14483   2.19821   0.65667
H    -2.14124   2.00020  -1.10883
H    -0.85414  -1.99973   1.11816
H    -2.42951  -2.05363   0.24101
H    -0.87050  -2.19239  -0.65532
H    -0.29170   1.49631  -0.15854
H     3.61480  -0.12160   0.88673
H     3.60136  -0.29848  -0.89564
H     3.98474   1.29547  -0.15680
