26
Generated by autodE on: 2022-05-28. E = -3296.356591 Ha
C     3.63541   2.20268  -0.65139
N     2.56981   1.27398  -0.97491
C     2.49016   0.03801  -0.47262
O     3.32542  -0.46792   0.28775
C     1.26166  -0.81093  -0.92255
C     1.38080  -1.16295  -2.40609
N     1.24322  -2.06526  -0.12719
O     0.31036  -1.82386   0.98716
C    -0.46204  -0.80342   0.61458
Br   -1.89493  -0.49709   1.76875
C    -0.06156  -0.16543  -0.51392
C    -0.66741   0.96155  -1.20518
O    -0.08828   1.62494  -2.03930
O    -1.92335   1.20176  -0.84874
C    -2.56371   2.34024  -1.43970
H     4.03767   2.65782  -1.56857
H     3.27582   3.00982   0.00745
H     4.44046   1.66324  -0.13858
H     1.78106   1.59987  -1.53884
H     1.36437  -0.25930  -3.02784
H     2.32757  -1.69491  -2.58518
H     0.54570  -1.81466  -2.69893
H     2.14720  -2.09143   0.36679
H    -2.64939   2.21205  -2.52845
H    -1.99781   3.25781  -1.22308
H    -3.55974   2.39208  -0.98520
