10
Generated by autodE on: 2022-05-28. E = -2878.922476 Ha
C    -4.26665   0.47028  -0.35758
O    -2.84764   0.62328  -0.17698
C    -2.10958  -0.47705  -0.32265
O    -2.55027  -1.57601  -0.59303
C    -0.70043  -0.20628  -0.11747
C     0.49123  -0.03853   0.04394
Br    2.24545   0.21170   0.28260
H    -4.48512   0.10941  -1.37279
H    -4.69587   1.46687  -0.20577
H    -4.67062  -0.23773   0.38009
