26
Generated by autodE on: 2022-05-28. E = -3296.272164 Ha. Imaginary frequency = -348.3 cm-1
C     2.66660   3.36104  -1.67890
N     2.22229   1.97924  -1.69218
C     2.29694   1.22096  -0.59190
O     2.81425   1.59382   0.46715
C     1.65353  -0.13965  -0.68040
C     1.27171  -0.80329  -1.95354
N     1.66606  -0.77583   0.46817
O     0.83309  -1.75065   0.71596
C    -0.77733  -1.03823   0.56983
Br   -1.81289  -2.33393   1.41579
C    -0.86245   0.06540  -0.01885
C    -1.00603   1.27069  -0.73953
O    -1.25965   1.34994  -1.94042
O    -0.79373   2.36826   0.02797
C    -0.91547   3.63500  -0.62946
H     3.75541   3.42194  -1.52775
H     2.41248   3.82241  -2.63998
H     2.17563   3.91977  -0.86718
H     1.71096   1.64028  -2.50096
H     2.16544  -0.87240  -2.59715
H     0.51002  -0.22457  -2.49755
H     0.88244  -1.80866  -1.75762
H     2.03295  -0.24829   1.27415
H    -1.95252   3.80595  -0.95581
H    -0.24943   3.69452  -1.50099
H    -0.62894   4.38846   0.11397
