20
Generated by autodE on: 2022-06-05. E = -719.065816 Ha
C     3.68849  -0.05441  -0.38711
O     2.39368   0.55246  -0.56680
C     1.39792   0.03502   0.12765
O     1.47988  -0.92129   0.87578
C     0.11288   0.76284  -0.04323
O    -1.01601   0.13603   0.08158
C    -1.41563  -1.11865   0.12677
C    -2.80301  -1.28738   0.35074
N    -3.93964  -1.45206   0.54840
C    -0.60728  -2.23807  -0.16783
N    -0.01824  -3.20013  -0.46274
C    -0.02042   2.23990  -0.12526
C    -1.41630   2.79444  -0.16056
O     0.98204   2.93816  -0.15775
H     4.00646   0.04041   0.66060
H     3.64864  -1.11583  -0.66906
H     4.36782   0.49540  -1.04708
H    -1.96159   2.40334  -1.03407
H    -1.36176   3.88875  -0.20997
H    -1.97561   2.48428   0.73622
