42
Generated by autodE on: 2022-06-05. E = -3888.633055 Ha. Imaginary frequency = -136.3 cm-1
C    -0.81672   4.63083  -0.79587
O    -1.19149   3.23972  -0.79787
C    -1.30034   2.64724   0.37660
O    -1.07379   3.16491   1.45212
C    -1.80280   1.24557   0.27836
C    -2.93509   0.83749  -0.61222
C    -3.47154  -0.55000  -0.40721
O    -3.35674   1.60448  -1.46043
O    -1.64486   0.43466   1.29415
C    -0.60388   0.23677   2.08351
C    -0.77938  -0.79236   3.04570
N    -0.91043  -1.62494   3.84769
C     0.52136   1.09731   2.18001
N     1.49687   1.73042   2.23386
C     0.54226  -0.69452  -0.03822
C     0.27413   0.16607  -0.87052
C     0.75161   0.90302  -2.07047
C     1.45523   2.12529  -1.62656
N     2.06404   3.04081  -1.26338
C    -0.33226   1.26969  -3.00328
N    -1.15324   1.51003  -3.78315
C     1.75761  -0.04906  -2.83625
C     3.13838  -0.26278  -2.20508
C     3.28938  -0.81988  -0.77762
C     2.49284  -2.10344  -0.45390
C     1.31336  -1.81993   0.47726
F     1.77274  -1.55978   1.74300
Br    0.11808  -3.40981   0.61682
H    -0.76135   4.92120  -1.85010
H     0.15916   4.75662  -0.30916
H    -1.58026   5.22069  -0.27029
H    -3.87526  -0.65731   0.61191
H    -2.66239  -1.28957  -0.51409
H    -4.25990  -0.73951  -1.14561
H     1.21629  -0.99651  -2.96828
H     1.90436   0.38888  -3.83428
H     3.69977   0.68387  -2.25428
H     3.64961  -0.95080  -2.89866
H     4.35898  -1.03527  -0.63858
H     3.05606  -0.03803  -0.03745
H     3.11936  -2.84802   0.05871
H     2.10735  -2.57248  -1.36967
