34
Generated by autodE on: 2022-07-27. E = -856.882045 Ha
C    -3.60146   0.97443   1.71377
N    -2.94535   1.01095   0.42070
C    -1.98055   0.12682   0.11452
O    -1.72289  -0.86064   0.80500
C    -1.29270   0.34598  -1.21894
C    -2.10087   0.74779  -2.40566
N    -0.02092   0.06298  -1.34246
C     0.58518   0.07187  -2.68934
C     0.85119  -0.05481  -0.22879
C     0.76386   0.98822   0.78870
O    -0.05348   1.93536   0.70754
N     1.62258   0.90501   1.83329
C     1.67961   1.93001   2.84953
C     1.69829  -1.19469  -0.13362
O     2.57255  -1.39276   0.72611
O     1.45487  -2.13372  -1.09272
C     2.30825  -3.27695  -1.09916
H    -3.98749  -0.03388   1.91704
H    -2.90389   1.24695   2.52416
H    -4.43811   1.68380   1.70980
H    -2.99560   1.87181  -0.11596
H    -3.13267   0.98169  -2.12566
H    -2.12560  -0.07178  -3.14336
H    -1.65464   1.62077  -2.90840
H     1.63907  -0.19702  -2.60189
H     0.06810  -0.63745  -3.34759
H     0.50539   1.08393  -3.11123
H     2.29810   0.14251   1.80982
H     0.68114   2.13018   3.26932
H     2.33682   1.59101   3.66098
H     2.07326   2.88706   2.46337
H     3.36090  -2.98838  -1.24181
H     2.21818  -3.84422  -0.16045
H     1.97662  -3.89821  -1.94063
