54
Generated by autodE on: 2022-06-11. E = -1393.380016 Ha. Imaginary frequency = -295.4 cm-1
C    -2.26526   3.67015   1.06717
N    -1.86060   2.77448   0.00032
C    -1.27585   1.59319   0.27910
O    -1.21661   1.15313   1.42703
C    -0.77253   0.87236  -0.98134
C    -1.78257   0.83143  -2.09271
C    -0.73361  -1.21500  -0.04877
C    -2.06298  -1.67204  -0.35947
C    -2.27927  -2.46316  -1.50563
C    -3.56685  -2.88894  -1.83311
C    -4.65461  -2.53274  -1.02883
C    -4.44580  -1.74799   0.11102
C    -3.16320  -1.31386   0.44559
C     0.42069  -1.31561   0.41389
C     1.52026  -2.02202   1.01101
O     2.14086  -2.92341   0.47244
O     1.83293  -1.55670   2.23954
C     2.99587  -2.12145   2.86749
C     1.51733   0.75176  -0.31042
C     1.45951   1.76963   0.80394
O     1.14290   2.94061   0.54156
N     1.78762   1.37155   2.03907
C     1.67011   2.26725   3.16990
C     2.81721   0.10484  -0.52825
O     3.77336   0.25199   0.22423
O     2.85779  -0.75500  -1.55833
C     4.08837  -1.45673  -1.76783
N     0.55103   0.85063  -1.29051
C     0.89701   0.65056  -2.71254
H    -2.93160   3.15392   1.77258
H    -2.79864   4.52417   0.63188
H    -1.38883   4.03894   1.62612
H    -1.77981   3.15371  -0.93729
H    -2.78506   0.70400  -1.66731
H    -1.59659  -0.00377  -2.77902
H    -1.78212   1.76461  -2.68397
H    -1.42970  -2.73448  -2.13511
H    -3.72171  -3.50196  -2.72412
H    -5.66202  -2.86526  -1.28921
H    -5.29073  -1.46861   0.74491
H    -2.99968  -0.69209   1.32587
H     3.88979  -1.91207   2.26321
H     2.87671  -3.20624   2.99518
H     3.07415  -1.62979   3.84390
H     1.89780   0.37370   2.20844
H     2.20878   3.20794   2.98338
H     0.61426   2.51419   3.37693
H     2.09991   1.78282   4.05595
H     4.32677  -2.08392  -0.89821
H     4.91238  -0.75213  -1.95120
H     3.92573  -2.08495  -2.65153
H     0.28497   1.32976  -3.31566
H     0.71617  -0.38628  -3.02444
H     1.94575   0.90497  -2.86637
