47
Generated by autodE on: 2022-06-20. E = -961.800610 Ha
C    -1.46966  -2.85676   1.83962
N    -1.34136  -1.52012   1.29301
C    -1.01924  -1.30872   0.00219
O    -0.89425  -2.24660  -0.79245
C    -0.81393   0.18581  -0.39183
C    -2.17270   0.86716  -0.24604
C    -2.34041   2.03396   0.50615
C    -3.59621   2.64555   0.60127
C    -4.69921   2.09713  -0.05695
C    -4.53965   0.92776  -0.81076
C    -3.28794   0.31787  -0.90116
N     0.23756   0.82113   0.41342
C     1.55008   0.69468  -0.23818
C     2.61080  -0.00456   0.58475
C     3.94333   0.42876   0.51006
C     4.95778  -0.24041   1.20154
C     4.65243  -1.35413   1.98950
C     3.32630  -1.79107   2.07795
C     2.31582  -1.12396   1.38057
C     1.25620  -0.03624  -1.57345
C     2.23565   0.29716  -2.68810
C    -0.23287   0.28153  -1.82992
C    -0.47073   1.64036  -2.48595
H    -2.31606  -3.39897   1.38730
H    -0.55526  -3.44306   1.65702
H    -1.63516  -2.78463   2.92160
H    -1.48581  -0.72474   1.90619
H    -1.47672   2.46314   1.01356
H    -3.70973   3.55676   1.19410
H    -5.67925   2.57453   0.01697
H    -5.39555   0.48906  -1.32958
H    -3.17330  -0.59632  -1.48915
H     0.23781   0.52972   1.38599
H     1.93860   1.70125  -0.47680
H     4.18483   1.30501  -0.09734
H     5.98913   0.11380   1.12908
H     5.44198  -1.87636   2.53519
H     3.07540  -2.65844   2.69370
H     1.28731  -1.48018   1.46304
H     1.31635  -1.11590  -1.37061
H     3.25332  -0.02573  -2.41627
H     1.96148  -0.21592  -3.62369
H     2.27436   1.37867  -2.89011
H    -0.68326  -0.50284  -2.45257
H    -1.54434   1.83198  -2.62427
H    -0.05772   2.46763  -1.88803
H     0.00002   1.67410  -3.47949
