12
Generated by autodE on: 2022-06-20. E = -157.299005 Ha
C     1.61878  -0.43892   0.10306
C     0.62855   0.67226  -0.07937
C    -0.71074   0.58144  -0.10051
C    -1.54717  -0.65348   0.05371
H     1.14382  -1.42197   0.23224
H     2.30088  -0.50205  -0.76326
H     2.25926  -0.25237   0.98321
H     1.06660   1.67000  -0.21003
H    -1.27502   1.51132  -0.24667
H    -2.23133  -0.55846   0.91547
H    -0.94798  -1.56418   0.19600
H    -2.19009  -0.80435  -0.83150
