35
Generated by autodE on: 2022-06-20. E = -804.445584 Ha
C    -1.73709   4.47326  -0.64038
N    -1.70060   3.07768  -0.26151
C    -0.60991   2.28619  -0.45775
O     0.47528   2.76005  -0.91828
C    -0.69735   0.87598  -0.07969
N     0.50117   0.24893  -0.21259
C     0.90184  -0.99754  -0.03112
C     2.25809  -1.43659  -0.26190
C     2.55824  -2.80690  -0.07392
C     3.84671  -3.29531  -0.28061
C     4.87497  -2.43327  -0.67999
C     4.59442  -1.07333  -0.86826
C     3.30929  -0.57665  -0.66308
C    -1.88462   0.18735   0.44282
C    -3.13412   0.29794  -0.20456
C    -4.27006  -0.33051   0.31034
C    -4.18521  -1.10044   1.47409
C    -2.95128  -1.23107   2.12184
C    -1.81724  -0.59533   1.61650
H    -2.11378   4.62187  -1.66841
H    -2.39211   5.02675   0.04703
H    -0.72724   4.89911  -0.58415
H    -2.55174   2.65298   0.08704
H     1.19181   0.93594  -0.55505
H     0.16077  -1.72461   0.29956
H     1.75953  -3.48503   0.23712
H     4.05150  -4.35802  -0.12893
H     5.88547  -2.81516  -0.84130
H     5.38950  -0.39039  -1.17757
H     3.12899   0.49067  -0.81475
H    -3.21056   0.87183  -1.13027
H    -5.22496  -0.22787  -0.21093
H    -5.07248  -1.59739   1.87302
H    -2.87360  -1.82567   3.03547
H    -0.86898  -0.69037   2.14928
