38
Generated by autodE on: 2022-06-17. E = -880.141861 Ha
C    -2.92716   2.45767   0.02522
O    -2.36379   1.13618  -0.02007
C    -1.07345   1.01270   0.28454
O    -0.36738   1.93835   0.61793
C    -0.61387  -0.43787   0.10059
C    -1.72440  -1.38537   0.61254
C    -2.20881  -1.16993   2.01981
O    -2.17677  -2.25038  -0.10913
C    -0.21698  -0.69066  -1.38250
C    -1.12365  -0.11847  -2.46290
C     1.22638  -0.15620  -1.44031
C     2.15797  -0.99142  -2.30704
N     1.62910  -0.11275  -0.01864
C     2.54304   0.78810   0.43476
C     2.65593   0.96758   1.92628
O     3.25770   1.40290  -0.36467
N     0.64562  -0.64773   0.84919
C     0.93757  -2.05312   1.16193
H    -2.40926   3.11352  -0.68871
H    -2.84084   2.87218   1.03929
H    -3.98050   2.34478  -0.25382
H    -1.46050  -0.66244   2.64293
H    -3.10322  -0.52713   1.97449
H    -2.50182  -2.13132   2.46299
H    -0.19579  -1.78474  -1.49305
H    -1.17019   0.98085  -2.42320
H    -2.14530  -0.51405  -2.37332
H    -0.73803  -0.39981  -3.45500
H     1.22507   0.88294  -1.80725
H     1.79161  -1.00869  -3.34556
H     3.17113  -0.56431  -2.30898
H     2.21071  -2.02723  -1.93805
H     2.77433   0.00484   2.44327
H     3.51987   1.61093   2.13543
H     1.74154   1.44125   2.31212
H     1.94328  -2.10083   1.59961
H     0.90143  -2.72261   0.28506
H     0.22952  -2.41644   1.91947
