26
Generated by autodE on: 2022-06-17. E = -722.770852 Ha
C    -1.15795   3.08066  -0.39636
O    -1.17228   1.64502  -0.46654
C    -0.37581   1.00294   0.37620
O     0.30610   1.52976   1.22845
C    -0.50804  -0.48578   0.22973
C    -1.92277  -0.99507   0.16342
C    -2.28746  -2.12209  -0.76354
O    -2.75957  -0.40221   0.82455
N     0.54325  -1.26946   0.34902
C     0.39192  -2.71983   0.58024
N     1.83125  -0.90321   0.32330
C     2.18310   0.09885  -0.53608
C     3.64738   0.44105  -0.49248
O     1.41538   0.68545  -1.31510
H    -1.48112   3.41782   0.59865
H    -1.85991   3.42546  -1.16347
H    -0.14583   3.45504  -0.60538
H    -2.50178  -3.02894  -0.17584
H    -3.21699  -1.83720  -1.27851
H    -1.50486  -2.34654  -1.49859
H    -0.55474  -2.94003   1.08081
H     1.22914  -3.02080   1.21777
H     0.46291  -3.24270  -0.38268
H     4.02032   0.59533  -1.51559
H     3.75539   1.39817   0.04601
H     4.23968  -0.32514   0.02234
