42
Generated by autodE on: 2022-06-03. E = -1549.457866 Ha. Imaginary frequency = -138.1 cm-1
C     3.63714  -1.78436   2.71329
N     3.16263  -1.98833   1.35778
C     1.85199  -1.98153   1.07895
O     0.98122  -1.98758   1.96460
C     1.48300  -1.98297  -0.37437
C     2.50580  -1.99432  -1.46722
N     0.22895  -2.16897  -0.61563
C    -0.95735  -1.91307  -0.67528
C    -1.17891   0.21548  -0.34569
C    -1.91799   0.17419   0.99491
O    -2.86297   0.95034   1.18108
N    -1.48275  -0.69043   1.91507
C    -1.98926  -0.62711   3.27319
C    -2.18243   0.37389  -1.48884
F    -2.59579   1.64673  -1.60892
F    -3.28073  -0.37768  -1.28062
F    -1.69373   0.00558  -2.68393
C     0.08713   0.80177  -0.37322
C     0.80815   1.21043   0.88464
O     1.97552   0.88877   1.13485
N     0.10430   1.99231   1.73230
C     0.57974   2.26010   3.07553
C     0.75776   1.19175  -1.65839
F     0.07984   2.16943  -2.31870
F     0.87975   0.18069  -2.54971
F     1.99816   1.67327  -1.46299
H     4.72070  -1.95027   2.74031
H     3.42034  -0.75811   3.05399
H     3.14874  -2.48763   3.40206
H     3.83141  -1.89892   0.60036
H     2.02630  -2.03117  -2.45080
H     3.12419  -1.08497  -1.40642
H     3.17183  -2.86671  -1.36030
H    -1.79024  -2.62205  -0.75643
H    -0.60619  -1.21110   1.76776
H    -3.07076  -0.82759   3.30346
H    -1.46959  -1.38346   3.87420
H    -1.81411   0.36669   3.71773
H    -0.84194   2.26596   1.49044
H     0.79692   1.31981   3.60769
H    -0.19647   2.80904   3.62239
H     1.50029   2.86442   3.06397
