40
Generated by autodE on: 2022-06-19. E = -936.295552 Ha
C    -2.34998  -2.90848   1.32363
N    -1.85146  -1.59881   0.94906
C    -1.12185  -1.41212  -0.16237
O    -0.86323  -2.34135  -0.93797
C    -0.49715  -0.00547  -0.36236
C    -1.42306   1.13422   0.04782
C    -0.92028   2.29236   0.65725
C    -1.76483   3.36846   0.94431
C    -3.12211   3.30736   0.61552
C    -3.62761   2.16364  -0.01009
C    -2.78367   1.08663  -0.29255
C    -0.04973   0.18377  -1.82614
C     1.32138  -0.48784  -1.93433
C     1.85456  -0.53367  -0.46083
C     2.16802  -1.93183  -0.07741
N     2.36680  -3.01735   0.28136
C     3.15864   0.29961  -0.37018
C     2.98565   1.78643  -0.30279
O     4.24040  -0.25355  -0.38123
N     0.79260   0.03574   0.34719
C     0.85457  -0.20105   1.77671
H    -3.05275  -3.29890   0.57025
H    -1.52368  -3.63004   1.42265
H    -2.87106  -2.82884   2.28545
H    -2.04821  -0.80423   1.54819
H     0.14131   2.35264   0.89797
H    -1.35711   4.26078   1.42548
H    -3.78216   4.14803   0.84188
H    -4.68442   2.10792  -0.28179
H    -3.19078   0.20303  -0.78873
H    -0.78017  -0.23403  -2.52983
H     0.03723   1.26141  -2.01512
H     1.24543  -1.50888  -2.32174
H     2.00956   0.07110  -2.58259
H     2.18776   2.13230  -0.97448
H     2.67985   2.05577   0.72156
H     3.93827   2.27911  -0.53661
H     0.06797   0.37286   2.28408
H     1.82525   0.14549   2.16477
H     0.73800  -1.26539   2.05497
