34
Generated by autodE on: 2022-06-19. E = -857.611684 Ha
C    -2.21697   3.01198   0.40141
N    -1.72046   1.65043   0.39105
C    -0.66852   1.30102  -0.36467
O    -0.13049   2.06447  -1.16913
C    -0.24307  -0.14885  -0.24497
C    -1.27715  -1.16964  -0.01624
C    -1.09554  -2.15592   0.97287
C    -2.09224  -3.10024   1.21230
C    -3.27498  -3.07893   0.46526
C    -3.46445  -2.09996  -0.51601
C    -2.47861  -1.14256  -0.75059
N     1.01837  -0.47980  -0.44973
C     1.40229  -1.86106  -0.80299
C     2.07879   0.42393  -0.24701
C     3.23878   0.27936  -1.02983
N     4.21550   0.19447  -1.66991
C     2.04914   1.34180   0.86071
C     3.29538   2.16338   1.10850
O     1.05823   1.46286   1.60127
H    -1.45559   3.70774   0.79135
H    -2.48757   3.33585  -0.61464
H    -3.10662   3.06050   1.04058
H    -2.07760   0.98698   1.07072
H    -0.18030  -2.16444   1.56656
H    -1.94712  -3.85404   1.98910
H    -4.05275  -3.82280   0.65194
H    -4.38594  -2.08144  -1.10172
H    -2.62829  -0.38180  -1.51860
H     2.15669  -1.80644  -1.59787
H     0.53374  -2.41207  -1.17183
H     1.83777  -2.36392   0.06983
H     3.17896   2.71326   2.05129
H     3.43046   2.88603   0.28674
H     4.20154   1.54118   1.15123
