34
Generated by autodE on: 2022-07-27. E = -857.608174 Ha
C    -1.64874  -2.80908  -1.86033
N    -1.43915  -1.67149  -0.98469
C    -0.36614  -0.88226  -1.11529
O     0.46834  -0.99274  -2.01488
C    -0.26013   0.23467  -0.08992
C    -1.45085   1.06313   0.13333
C    -2.21328   1.47850  -0.97672
C    -3.36851   2.23459  -0.78957
C    -3.79201   2.56103   0.50342
C    -3.05365   2.13092   1.61108
C    -1.88635   1.39042   1.43253
N     0.89485   0.44486   0.50541
C     1.16408   1.69577   1.24320
C     1.91338  -0.54271   0.55289
C     1.49829  -1.87947   0.69223
N     1.16365  -2.99418   0.82185
C     3.30653  -0.23930   0.34127
C     4.26199  -1.41534   0.40931
O     3.74309   0.89668   0.08703
H    -1.71014  -2.48870  -2.91137
H    -2.58678  -3.30284  -1.58106
H    -0.81989  -3.52861  -1.76586
H    -2.07310  -1.51551  -0.20633
H    -1.88498   1.22344  -1.98641
H    -3.94373   2.56690  -1.65622
H    -4.70368   3.14490   0.64844
H    -3.39143   2.36937   2.62182
H    -1.32688   1.04124   2.30109
H     2.20411   1.96494   1.04063
H     1.02523   1.52182   2.31796
H     0.49607   2.48700   0.89220
H     4.09087  -2.09717  -0.43966
H     4.12655  -2.00038   1.33171
H     5.29129  -1.03678   0.36027
