40
Generated by autodE on: 2022-06-19. E = -936.210290 Ha. Imaginary frequency = -357.7 cm-1
C    -1.67763  -3.34378   0.55214
N    -1.20306  -1.97860   0.65200
C    -1.01476  -1.22237  -0.44516
O    -1.38237  -1.57163  -1.56556
C    -0.41868   0.16060  -0.11713
C    -1.46847   1.20795   0.05647
C    -1.14700   2.57976  -0.00729
C    -2.13775   3.55297   0.10175
C    -3.47652   3.18239   0.26841
C    -3.81315   1.82812   0.32058
C    -2.82195   0.85099   0.21274
C     0.46555   0.61401  -2.03135
C     1.66489  -0.06792  -2.06127
C     1.79576  -0.64606   0.33145
C     1.61894  -2.02479   0.03763
N     1.57535  -3.16520  -0.21259
C     3.18049  -0.18332   0.48964
C     4.26872  -1.19379   0.20155
O     3.47073   0.97821   0.78374
N     0.70815   0.16467   0.66908
C     0.90158   1.19793   1.70443
H    -2.61036  -3.38566  -0.02849
H    -1.86443  -3.73149   1.56103
H    -0.92704  -3.98067   0.05394
H    -0.80802  -1.66309   1.53232
H    -0.11454   2.89212  -0.15917
H    -1.86257   4.60857   0.04774
H    -4.25280   3.94650   0.35081
H    -4.85466   1.52460   0.44728
H    -3.11434  -0.19751   0.26356
H    -0.41210   0.18911  -2.51973
H     0.48253   1.69798  -1.90899
H     1.71773  -1.10050  -2.41326
H     2.61235   0.46279  -1.95519
H     4.16180  -1.61291  -0.81078
H     4.21951  -2.03534   0.91035
H     5.24244  -0.69564   0.28958
H     1.34193   2.11743   1.30612
H     1.56780   0.79343   2.47246
H    -0.07124   1.41419   2.15902
