54
Generated by autodE on: 2022-10-22. E = -1574.936346 Ha
C     4.38852  -1.84050   5.14664
N     3.80782  -1.26036   3.95112
C     4.38929  -0.23336   3.33250
O     5.38020   0.35762   3.76426
C     3.76049   0.28365   1.99572
C     2.42767  -0.37175   1.52185
C     1.56317   0.45193   0.62039
O     2.13222  -1.50525   1.85100
O     3.53384   1.68097   2.19387
C     4.30036   2.47038   1.29613
C     3.36538   3.24458   0.44331
N     2.57729   3.80401  -0.19529
C     5.14655   3.48181   2.11243
O     4.77285   4.60411   2.36165
O     6.27298   2.93508   2.51781
C     7.15965   3.74687   3.30631
C     5.12627   1.47423   0.49464
C     4.80007   0.23390   0.87665
C     5.24141  -1.11224   0.35028
F     4.15425  -1.61945  -0.34435
F     5.39067  -1.95081   1.43756
C     6.45839  -1.22798  -0.53165
C     7.79543  -0.87808   0.12576
C     7.90825   0.49574   0.79253
C     7.61184   1.72438  -0.07205
C     6.15045   1.99832  -0.50697
O     5.98021   1.46212  -1.79679
C     4.66825   1.51957  -2.35087
O     5.87908   3.39409  -0.52444
C     6.67265   4.20100  -1.38289
H     4.56352  -1.06599   5.90723
H     5.35333  -2.32824   4.92783
H     3.69623  -2.58865   5.55144
H     3.07531  -1.75266   3.44090
H     1.17641   1.32092   1.17404
H     0.73065  -0.16306   0.25744
H     2.14635   0.83960  -0.22847
H     8.02883   3.11564   3.51956
H     7.45872   4.63628   2.73453
H     6.66355   4.04943   4.23888
H     6.28280  -0.60815  -1.41640
H     6.47235  -2.27888  -0.85898
H     8.03188  -1.64419   0.88121
H     8.56627  -0.96446  -0.65723
H     8.94730   0.60320   1.14270
H     7.29210   0.52698   1.70337
H     8.21284   1.69592  -0.99422
H     7.92600   2.60793   0.49925
H     4.25717   2.53940  -2.31109
H     4.76172   1.20990  -3.40004
H     3.98353   0.82753  -1.83413
H     7.70350   4.30563  -1.00802
H     6.19806   5.19119  -1.40107
H     6.69654   3.79318  -2.40500
