26
Generated by autodE on: 2022-10-22. E = -834.921124 Ha
C    -1.85877  -1.11880  -3.24867
N    -1.75250  -0.19440  -2.13808
C    -1.03467  -0.49581  -1.04779
O    -0.36497  -1.52904  -0.91701
C    -1.14859   0.45584   0.09482
O    -0.30951   0.37876   1.09578
C     0.91579  -0.10252   1.14846
C     1.42928  -0.25639   2.45541
N     1.85839  -0.41560   3.52849
C     1.79530  -0.14484  -0.03182
O     1.56286   0.45284  -1.06494
O     2.90533  -0.83217   0.22239
C     3.91117  -0.83771  -0.80608
C    -2.32210   1.30128   0.38903
C    -2.41624   1.91207   1.75807
O    -3.15897   1.51784  -0.48716
H    -0.86753  -1.52454  -3.49393
H    -2.25666  -0.58503  -4.12040
H    -2.52671  -1.96527  -3.01538
H    -2.41384   0.57844  -2.04503
H     4.26532   0.18544  -0.99621
H     4.72691  -1.45992  -0.42217
H     3.50212  -1.26686  -1.73155
H    -1.59570   2.63284   1.90465
H    -2.31617   1.14274   2.53894
H    -3.37968   2.42818   1.85124
