28
Generated by autodE on: 2022-10-22. E = -739.873625 Ha
C    -0.12129  -2.84497  -1.61211
O    -0.83727  -1.61579  -1.62757
C    -1.09726  -1.04925  -0.36499
O    -1.83433  -1.92466   0.45784
C    -3.14479  -2.25313   0.00635
C     0.15847  -0.71937   0.34315
C     1.09549  -0.05464   0.72697
C     1.82831   1.20173   0.90099
F     1.60028   1.69110   2.16648
F     3.18408   1.02854   0.81414
C     1.36218   2.21193  -0.14031
C    -0.16496   2.37179  -0.26534
C    -0.92531   1.41731  -1.22918
C    -1.80131   0.30305  -0.61953
H     0.86193  -2.72809  -1.12332
H     0.03208  -3.13597  -2.65972
H    -0.68481  -3.63575  -1.09230
H    -3.47217  -3.11661   0.60151
H    -3.85359  -1.42397   0.16532
H    -3.14807  -2.53287  -1.05888
H     1.82656   3.16898   0.14679
H     1.79966   1.90707  -1.10350
H    -0.61740   2.33809   0.73998
H    -0.32979   3.39830  -0.62443
H    -0.22385   0.97082  -1.95286
H    -1.60381   2.04178  -1.82911
H    -2.63667   0.08801  -1.30225
H    -2.23196   0.63271   0.33835
