45
Generated by autodE on: 2022-06-18. E = -868.498525 Ha
C     4.81867   1.11851   0.47066
O     3.47661   1.05632  -0.03407
C     2.51899   0.72070   0.83248
O     2.72480   0.54689   2.01957
C     1.17660   0.57222   0.15640
N     0.10304   0.77163   1.12332
C    -0.97103  -0.19724   0.84283
C    -1.75745  -0.43539   2.14025
C    -1.95905   0.38978  -0.17906
C    -1.74744   1.64740  -0.76420
C    -2.66393   2.19252  -1.66902
C    -3.82766   1.49501  -2.00114
C    -4.06903   0.25391  -1.40365
C    -3.14950  -0.28589  -0.50113
C    -0.18085  -1.47904   0.31964
C     0.39132  -2.24009   1.53200
C    -1.00478  -2.49063  -0.48049
C     0.98525  -0.84323  -0.53844
C     2.26311  -1.69727  -0.54750
C     0.60190  -0.62227  -2.01182
H     4.89637   1.87255   1.26682
H     5.12506   0.13790   0.86306
H     5.44915   1.39946  -0.38067
H     1.14724   1.33850  -0.63256
H     0.48277   0.55875   2.04490
H    -1.08651  -0.66612   2.97905
H    -2.32619   0.46944   2.40136
H    -2.46887  -1.26555   2.03168
H    -0.85343   2.21061  -0.50135
H    -2.46551   3.17160  -2.11272
H    -4.54524   1.91783  -2.70847
H    -4.98339  -0.29798  -1.63604
H    -3.37361  -1.24603  -0.03704
H     1.00152  -3.09038   1.19944
H     1.02058  -1.60681   2.17339
H    -0.41943  -2.65341   2.14739
H    -0.35554  -3.31629  -0.81387
H    -1.79349  -2.93083   0.14910
H    -1.48324  -2.06273  -1.36838
H     2.03782  -2.70861  -0.91990
H     3.01070  -1.25563  -1.22183
H     2.72774  -1.80084   0.44177
H    -0.34493  -0.08151  -2.13041
H     1.38961  -0.03286  -2.50731
H     0.52089  -1.57969  -2.54701
