18
Generated by autodE on: 2022-06-18. E = -235.968071 Ha
C    -1.58969   1.14771   0.20343
C    -0.66927  -0.04406   0.09294
C    -1.42402  -1.34602   0.21547
C     0.66928   0.04405  -0.09286
C     1.58970  -1.14770  -0.20345
C     1.42400   1.34602  -0.21550
H    -1.08658   2.11793   0.11476
H    -2.37250   1.10116  -0.57487
H    -2.12371   1.13166   1.17057
H    -0.79545  -2.24194   0.14758
H    -2.19772  -1.41639  -0.57018
H    -1.96583  -1.38616   1.17754
H     2.37318  -1.10063   0.57413
H     2.12287  -1.13217  -1.17108
H     1.08676  -2.11792  -0.11378
H     1.96567   1.38615  -1.17765
H     2.19780   1.41643   0.57004
H     0.79542   2.24193  -0.14757
