27
Generated by autodE on: 2022-07-27. E = -632.483133 Ha
C     4.94098   0.20120  -0.57936
O     3.53393   0.25057  -0.79993
C     2.74153  -0.01566   0.28091
O     3.22597  -0.28023   1.39308
C     1.35955   0.04380  -0.02595
N     0.51144  -0.15001   1.02894
C    -0.79939  -0.15160   1.19587
C    -1.29221  -0.25317   2.60865
C    -1.75482  -0.02943   0.09310
C    -3.04646   0.48249   0.35641
C    -3.99761   0.58853  -0.65679
C    -3.69766   0.16601  -1.95620
C    -2.43514  -0.37027  -2.22779
C    -1.47316  -0.46340  -1.22223
H     5.25612   0.94568   0.16864
H     5.25859  -0.79713  -0.23959
H     5.41129   0.42852  -1.54465
H     0.98792   0.31113  -1.00736
H     1.04812  -0.30040   1.89226
H    -1.71613   0.70512   2.95497
H    -2.08651  -1.01006   2.70009
H    -0.47119  -0.51783   3.29059
H    -3.30464   0.81560   1.36209
H    -4.98256   1.00270  -0.42879
H    -4.44451   0.24784  -2.74918
H    -2.19512  -0.72461  -3.23305
H    -0.51156  -0.91615  -1.45828
