12
Generated by autodE on: 2022-05-28. E = -356.895556 Ha
C    -1.95398  -1.03672  -0.67608
N    -1.62715   0.36648  -0.50248
C    -0.48501   0.84147   0.02798
O    -0.19350   2.03808   0.10645
C     0.41823  -0.17152   0.59169
N     1.47028  -0.69640   0.39226
N     2.47545  -1.39385   0.22026
H    -3.04542  -1.15541  -0.68269
H    -1.55121  -1.62541   0.16100
H    -1.55053  -1.44681  -1.61638
H    -2.23389   1.06774  -0.92104
H     3.31224  -0.86682   0.51239
