14
Generated by autodE on: 2022-05-28. E = -2973.384105 Ha
N     2.91191  -1.60735  -0.52667
C     1.82934  -1.34533  -0.18231
C     0.52126  -1.05145   0.24398
C    -0.14945   0.11771   0.22348
Br    0.39527   1.78417  -0.39161
C    -1.57997  -0.21304   0.71687
C    -2.23940  -1.04951  -0.40170
C    -1.59402  -2.21860  -0.37673
C    -0.54832  -2.07546   0.74866
O    -1.25778  -1.23376   1.66959
H    -2.14932   0.61377   1.15271
H    -3.01761  -0.68858  -1.07250
H    -1.69921  -3.09000  -1.02141
H    -0.15732  -2.98335   1.21711
