42
Generated by autodE on: 2022-05-30. E = -975.207176 Ha. Imaginary frequency = -432.4 cm-1
C    -0.66732   0.45233   3.19657
N    -0.30539   1.49680   2.24208
N     0.79980   1.22216   1.57817
N     1.00292   0.03760   1.07029
C     2.07911  -0.10921   0.20774
C     2.15757  -1.34659  -0.47176
C     3.16004  -1.57936  -1.40983
C     4.12609  -0.59991  -1.67330
C     4.08069   0.61325  -0.97535
C     3.07651   0.86358  -0.04078
C    -1.37141   0.37065  -0.10421
C    -1.56658  -1.06527  -0.15227
C    -1.11266  -1.81468  -1.26360
C    -1.28075  -3.19883  -1.32077
C    -1.91124  -3.88144  -0.27576
C    -2.38078  -3.15458   0.82682
C    -2.21512  -1.77299   0.88862
C    -1.21231   1.23860  -1.38032
C    -0.00153   2.15097  -1.22188
C    -0.35600   3.04473  -0.28787
C    -1.77981   2.64916   0.11569
O    -2.28998   2.18426  -1.15538
C    -1.71405   1.30346   0.89298
H    -0.76208  -0.55165   2.76172
H     0.10702   0.41455   3.98059
H    -1.61924   0.73216   3.66519
H     1.20289   2.04269   1.11256
H     1.40839  -2.10743  -0.25211
H     3.19422  -2.53740  -1.93445
H     4.91771  -0.78611  -2.40230
H     4.84494   1.37384  -1.15370
H     3.08805   1.80791   0.50615
H    -0.60077  -1.30764  -2.08284
H    -0.90987  -3.74947  -2.18908
H    -2.04153  -4.96511  -0.32007
H    -2.88802  -3.67170   1.64540
H    -2.60291  -1.22797   1.75004
H    -1.32819   0.71667  -2.33440
H     0.95934   2.01644  -1.71656
H     0.23266   3.84517   0.16108
H    -2.41779   3.42323   0.55486
H    -2.47489   1.09760   1.64485
