32
Generated by autodE on: 2022-10-21. E = -1021.888687 Ha
C     3.37886  -1.87042   1.35126
O     2.28366  -1.40570   0.54081
C     1.55204  -0.42407   1.03780
O     1.71972   0.08618   2.12408
C     0.45280   0.06342   0.07986
C     0.91620   1.41035  -0.55251
O     0.14503   2.24217  -0.96920
O     2.23672   1.48982  -0.61785
C     2.79579   2.65812  -1.24851
C    -0.87857   0.26883   0.78826
C    -1.02758   1.10151   1.91296
N    -1.13002   1.80686   2.83657
C    -1.86005  -0.31203   0.03351
O    -3.15822  -0.42553   0.13137
C    -3.84860   0.15524   1.25566
N    -1.30236  -0.93312  -1.07774
C    -1.91903  -1.86380  -1.79980
N    -2.44834  -2.64422  -2.48606
N     0.13985  -0.94595  -0.96244
C     0.78191  -0.78384  -2.26387
H     3.85387  -2.67480   0.77917
H     3.00491  -2.25038   2.31205
H     4.09006  -1.05106   1.52752
H     3.88284   2.53916  -1.18765
H     2.47056   2.70773  -2.29696
H     2.47481   3.56285  -0.71418
H    -4.90278  -0.10721   1.11742
H    -3.72480   1.24633   1.24902
H    -3.46883  -0.27729   2.19141
H     0.53258  -1.64765  -2.89548
H     1.86521  -0.78773  -2.09856
H     0.48387   0.14329  -2.78342
