23
Generated by autodE on: 2022-10-26. E = -737.578703 Ha
C     0.90674  -0.47513   3.02413
O     0.34898   0.10906   1.83176
C     0.47134  -0.59130   0.71642
O     1.01406  -1.66936   0.61511
C    -0.11225   0.12586  -0.47171
C     0.58221   1.35693  -0.92027
O     0.15935   2.17320  -1.71302
O     1.76035   1.45298  -0.30060
C     2.54749   2.62264  -0.57694
N    -1.13629  -0.39047  -1.13360
C    -1.53865   0.11554  -2.46781
N    -1.91708  -1.38849  -0.74571
C    -1.88202  -1.81442   0.49913
N    -1.99498  -2.27530   1.57288
H     0.39562  -1.42262   3.24560
H     0.73172   0.25288   3.82353
H     1.98321  -0.65217   2.89143
H     3.45184   2.52464   0.03346
H     1.99121   3.52871  -0.29763
H     2.80653   2.66200  -1.64443
H    -2.17323  -0.65971  -2.90475
H    -2.10474   1.04504  -2.33649
H    -0.65316   0.29926  -3.08160
