32
Generated by autodE on: 2022-10-21. E = -1021.793705 Ha. Imaginary frequency = -310.6 cm-1
C     2.42301  -0.80796   2.58119
O     1.82792  -0.11692   1.47116
C     1.26563  -0.86384   0.52723
O     1.23764  -2.07327   0.52682
C     0.71577   0.01043  -0.56433
C     1.44740   1.28378  -0.89462
O     0.88997   2.33726  -1.10676
O     2.75740   1.09576  -0.89807
C     3.57984   2.25957  -1.11118
C    -1.15309   0.59942   1.04643
C    -0.60675   1.68928   1.65393
N    -0.13268   2.62967   2.17021
C    -1.88741  -0.34696   0.67566
O    -2.94661  -1.08704   0.77451
C    -3.84541  -0.75185   1.86169
N    -1.07216  -1.31481  -0.86321
C    -1.93730  -1.93067  -1.65532
N    -2.72847  -2.54945  -2.25504
N    -0.21377  -0.44032  -1.39735
C    -0.58828   0.27173  -2.63049
H     3.24129  -1.45337   2.23204
H     1.66573  -1.41403   3.09824
H     2.80732  -0.02654   3.24567
H     4.61491   1.90525  -1.06294
H     3.36610   2.69789  -2.09582
H     3.38699   3.00057  -0.32283
H    -3.31031  -0.83974   2.81794
H    -4.66418  -1.47775   1.80595
H    -4.22203   0.27144   1.72366
H    -1.00553  -0.46156  -3.33056
H     0.29760   0.73106  -3.07676
H    -1.34274   1.03222  -2.38490
