45
Generated by autodE on: 2022-06-14. E = -6467.668803 Ha
C    -1.06460   4.24889   0.36007
O    -0.34408   3.02864   0.11281
C     0.94266   3.01526   0.42403
O     1.57522   3.94485   0.86329
C     1.58657   1.66702   0.04799
F     2.68530   1.49930   0.91247
C     2.17464   1.81672  -1.36505
C     2.33581   0.52968  -2.17567
C     1.21978   0.37815  -3.20951
C    -0.20674   0.58519  -2.69300
C    -0.71338  -0.39289  -1.64404
Br   -0.48992  -2.25785  -2.32370
Br   -2.68748  -0.04466  -1.44155
C    -0.16178  -0.33010  -0.26303
C     0.68258   0.50354   0.37913
C     0.75611  -0.03717   1.82896
C     1.14352   0.94217   2.92305
O     0.62210   2.03208   3.01184
O     2.03508   0.45075   3.75968
C     2.44697   1.30628   4.84348
C     1.57493  -1.35038   1.62446
O     2.71250  -1.62475   1.87709
O     0.71144  -2.19698   0.99934
C    -0.53232  -1.38189   0.81904
C    -1.63564  -2.32405   0.65402
N    -2.49913  -3.09440   0.63634
N    -0.60970  -0.56952   2.00552
C    -0.85768  -1.27161   3.26961
H    -0.62422   5.07465  -0.21596
H    -1.03778   4.48490   1.43306
H    -2.09307   4.05855   0.03455
H     1.57463   2.54469  -1.92977
H     3.14165   2.30576  -1.18348
H     2.38957  -0.34499  -1.50763
H     3.29740   0.55841  -2.70868
H     1.29556  -0.59625  -3.71355
H     1.36480   1.14302  -3.98999
H    -0.33084   1.59234  -2.26526
H    -0.89479   0.52838  -3.54686
H     2.88707   2.22931   4.44144
H     3.19300   0.73520   5.40616
H     1.58450   1.54974   5.47915
H    -0.82155  -0.53847   4.08543
H    -1.87016  -1.69425   3.24371
H    -0.13666  -2.07911   3.48155
