26
Generated by autodE on: 2022-06-14. E = -5786.573564 Ha
C     1.71346  -3.64167  -4.11980
O     2.17336  -2.66530  -3.16602
C     1.24443  -2.04771  -2.45566
O     0.05214  -2.24340  -2.54415
C     1.85025  -0.97121  -1.53913
F     3.16959  -1.30271  -1.26255
C     1.06070  -0.81600  -0.32304
C     0.22080  -0.31654   0.39361
C    -0.75283   0.64821   0.82039
Br   -2.32736  -0.22502   1.66318
Br    0.08673   1.84702   2.17775
C    -1.20240   1.46185  -0.40779
C    -0.06634   1.99882  -1.30409
C     0.47000   1.08604  -2.44205
C     1.83957   0.40355  -2.26064
H     1.05279  -3.16646  -4.85840
H     1.17383  -4.44841  -3.60444
H     2.61418  -4.03272  -4.60549
H    -1.82855   2.28923  -0.04385
H    -1.85308   0.80025  -1.00117
H     0.76634   2.36041  -0.67880
H    -0.48194   2.89751  -1.78344
H     0.57841   1.72198  -3.33300
H    -0.28861   0.33393  -2.71186
H     2.31147   0.23904  -3.24165
H     2.51545   1.04623  -1.67481
