19
Generated by autodE on: 2022-07-27. E = -681.041845 Ha
C     2.40091   2.75201   1.64552
O     1.93194   1.56554   0.99142
C     0.60743   1.46524   0.81193
O    -0.18806   2.31928   1.17170
C     0.25855   0.22396   0.14277
C     1.12665  -0.81965  -0.29660
O     2.31509  -1.03762  -0.28335
O     0.23255  -1.78687  -0.87958
C    -1.00949  -1.32301  -0.77462
C    -2.11443  -2.05003  -1.26664
N    -3.01705  -2.65944  -1.67657
N    -1.03791  -0.14149  -0.17848
C    -2.25382   0.63259   0.07812
H     2.13162   3.64632   1.06487
H     1.97485   2.83106   2.65628
H     3.49099   2.65142   1.70159
H    -2.17552   1.59887  -0.43233
H    -3.11265   0.06919  -0.30278
H    -2.35325   0.79543   1.15702
