45
Generated by autodE on: 2022-06-14. E = -6467.614670 Ha. Imaginary frequency = -322.4 cm-1
C    -0.87042   4.15335   1.40082
O    -0.24272   3.07581   0.68103
C     1.06881   2.94552   0.81254
O     1.78642   3.67994   1.45023
C     1.59962   1.74306   0.01419
F     2.81335   1.38363   0.59697
C     1.87880   2.17190  -1.43921
C     2.16882   0.99117  -2.38188
C     1.04528   0.65789  -3.37582
C    -0.40169   0.56520  -2.87337
C    -0.72641  -0.47361  -1.79503
Br   -0.21107  -2.29532  -2.40697
Br   -2.71822  -0.42958  -1.53261
C    -0.09254  -0.20149  -0.50922
C     0.68242   0.58996   0.07254
C     0.61206  -0.22248   2.27357
C     0.87734   0.89671   3.20277
O     0.01593   1.63187   3.64618
O     2.17236   1.01023   3.46370
C     2.57507   2.11443   4.29214
C     1.57570  -1.23068   1.82429
O     2.76373  -1.36940   1.93776
O     0.79582  -2.16282   1.12786
C    -0.48368  -1.68143   1.08844
C    -1.51001  -2.62102   0.76525
N    -2.32964  -3.40251   0.51143
N    -0.63711  -0.73799   2.05830
C    -1.89858  -0.03007   2.25654
H    -0.45512   5.11807   1.07835
H    -0.71434   4.01765   2.47957
H    -1.93656   4.09286   1.15703
H     1.02350   2.76595  -1.79374
H     2.73575   2.85901  -1.37442
H     2.43768   0.10252  -1.79013
H     3.06437   1.22606  -2.97634
H     1.30592  -0.27310  -3.90283
H     1.02280   1.44650  -4.14636
H    -0.72309   1.53235  -2.45534
H    -1.05088   0.36401  -3.73744
H     2.29372   3.06238   3.81479
H     3.66442   2.03662   4.37765
H     2.10534   2.03754   5.28258
H    -1.90598   0.87870   1.63696
H    -2.71927  -0.69546   1.96640
H    -1.99968   0.24329   3.31038
