27
Generated by autodE on: 2022-06-16. E = -723.680294 Ha. Imaginary frequency = -387.8 cm-1
C     4.08000  -0.34788  -1.14884
O     3.06418  -0.63467  -0.17674
C     2.11597   0.29719  -0.01196
O     2.09386   1.36329  -0.60112
C     1.07755  -0.17690   0.91064
N     0.14732   0.67800   1.30375
C    -1.03676   0.91062   1.19175
C    -2.00879   1.76640   1.69846
N    -2.92317   2.41271   2.02715
C    -1.59413  -0.90687  -0.16547
C    -2.42162   0.00855  -0.94011
O    -3.60377   0.23818  -0.69543
C    -0.36750  -1.42071  -0.59483
C     0.08205  -2.76172  -0.06823
C     0.23235  -1.01028  -1.92010
H     4.64078   0.55365  -0.86290
H     4.74305  -1.22039  -1.15793
H     3.63072  -0.20055  -2.14153
H     1.29769  -1.01068   1.58093
H    -2.11596  -1.40971   0.65575
H    -1.92712   0.51234  -1.80086
H    -0.29878  -2.95503   0.94501
H    -0.30295  -3.55607  -0.73380
H     1.17836  -2.85062  -0.06519
H     1.27754  -1.34025  -1.99159
H     0.19958   0.07370  -2.08902
H    -0.31643  -1.49854  -2.74398
