26
Generated by autodE on: 2022-07-27. E = -652.317253 Ha
C    -3.29929  -0.03192  -2.35067
O    -2.32130   0.00744  -1.31268
C    -2.79520   0.18081  -0.04605
O    -4.00203   0.29160   0.18850
C    -1.77212   0.21976   0.95284
C    -2.00713   0.39425   2.40124
O    -0.52216   0.08578   0.49733
C     0.58690   0.08340   1.16601
C     1.81905  -0.07403   0.45085
C     1.85579  -0.22361  -0.95703
C     3.07386  -0.37324  -1.61116
C     4.27488  -0.37756  -0.88644
C     4.24846  -0.23026   0.50580
C     3.03491  -0.07950   1.17273
H    -3.86910   0.90905  -2.39608
H    -4.00245  -0.86618  -2.20340
H    -2.74514  -0.17523  -3.28664
H    -3.08283   0.49070   2.59108
H    -1.61921  -0.46426   2.98348
H    -1.49505   1.29567   2.79105
H     0.55519   0.20233   2.25126
H     0.92025  -0.21966  -1.51926
H     3.09289  -0.48809  -2.69751
H     5.22775  -0.49564  -1.40718
H     5.18166  -0.23308   1.07370
H     3.01233   0.03596   2.25909
