49
Generated by autodE on: 2022-06-22. E = -1003.844369 Ha. Imaginary frequency = -299.0 cm-1
C     2.60295  -1.88949   2.00073
C     1.31445  -1.49335   2.09245
C     0.66568  -1.27470   3.43393
C     0.53088  -1.27122   0.87160
C     1.12292   1.00410   0.62452
C     2.38191   0.97145  -0.07895
C     2.44173   0.91724  -1.48977
C     3.67111   0.82124  -2.13356
C     4.85999   0.77046  -1.38943
C     4.80929   0.82176   0.00679
C     3.58084   0.92312   0.66214
O     0.04262   1.29384  -0.06478
C    -1.19634   1.20321   0.45570
C    -1.45451   1.62195   1.86190
C    -2.24469   1.21982  -0.53852
O    -3.44552   1.23182  -0.27385
O    -1.78942   1.13852  -1.80915
C    -2.77886   1.08185  -2.83862
C    -0.86266  -1.23321   0.79986
C    -1.56689  -1.67666  -0.39140
C    -2.88134  -1.99209  -0.48948
C    -3.46129  -2.48827  -1.78403
C    -3.85546  -1.90938   0.65333
H     3.07893  -2.05286   1.03033
H     3.20800  -2.06893   2.89371
H    -0.24518  -1.88514   3.54741
H     1.35440  -1.52784   4.25214
H     0.35811  -0.22402   3.56157
H     1.05642  -1.51082  -0.05805
H     1.10355   1.15257   1.70477
H     1.51410   0.94646  -2.06442
H     3.70937   0.78175  -3.22482
H     5.82214   0.69298  -1.90090
H     5.73257   0.78631   0.58973
H     3.53893   0.97321   1.75142
H    -2.53293   1.56982   2.05570
H    -0.94428   0.99404   2.60416
H    -1.11888   2.66461   2.02319
H    -3.40356   1.98775  -2.83310
H    -3.42311   0.19964  -2.71929
H    -2.22784   1.01528  -3.78456
H    -1.42982  -1.17791   1.72998
H    -0.95015  -1.78016  -1.29154
H    -3.87707  -3.50572  -1.66602
H    -4.30411  -1.85173  -2.10788
H    -2.71435  -2.51145  -2.59120
H    -4.22278  -2.91656   0.92247
H    -3.43257  -1.44823   1.55526
H    -4.74223  -1.32447   0.35766
