36
Generated by autodE on: 2022-06-03. E = -1251.776217 Ha
C     4.02940   0.69665  -0.16433
C     2.91850  -0.31344  -0.18899
O     3.10884  -1.50776  -0.37557
C     1.53733   0.17644   0.02829
N     1.31485   1.40222   0.36067
N     0.00005   1.59345   0.54227
C    -0.54900   2.82546   0.84862
C     0.40378   3.96567   1.03904
O    -1.76766   2.90997   0.93966
C    -0.82890   0.39054   0.34389
C    -1.86837   0.73680  -0.75452
C    -3.31460   0.41756  -0.54558
O    -1.45003   1.27428  -1.76073
C    -1.32124  -0.15760   1.74189
C    -2.06028  -1.46562   1.52526
C    -1.11296  -2.36631   1.23546
C     0.19584  -1.60170   1.29031
O    -0.06815  -0.60539   2.27424
C     0.28412  -0.68054  -0.00541
C     0.13038  -1.47335  -1.30968
F     0.69258  -0.84037  -2.34995
F     0.69729  -2.68581  -1.21597
F    -1.16162  -1.68655  -1.62605
H     4.98728   0.18663  -0.32595
H     4.04201   1.22739   0.79979
H     3.86889   1.45373  -0.94774
H     1.13290   3.73310   1.82883
H     0.96704   4.14746   0.11129
H    -0.17199   4.85932   1.30710
H    -3.47213  -0.66591  -0.66302
H    -3.64383   0.69991   0.46385
H    -3.90779   0.94563  -1.30319
H    -1.78466   0.60613   2.37263
H    -3.14040  -1.59312   1.54620
H    -1.22010  -3.40959   0.94227
H     1.11883  -2.15195   1.49319
