21
Generated by autodE on: 2022-06-03. E = -797.432670 Ha
C    -2.83041  -1.75132  -0.06592
C    -2.02794  -0.48249  -0.06448
O    -2.51103   0.60827   0.21032
C    -0.59474  -0.61180  -0.41299
C     0.41946   0.23857  -0.17569
C     0.42538   1.57357   0.49797
F    -0.18457   2.51937  -0.23678
F    -0.17812   1.54864   1.69920
F     1.69002   1.99172   0.70650
C     1.69611  -0.51263  -0.62426
C     1.90844  -1.66291   0.38797
C     0.90945  -2.51568   0.14810
C     0.10387  -1.86952  -1.00181
O     1.15921  -1.23449  -1.74132
H    -3.84030  -1.56316   0.31991
H    -2.89282  -2.14391  -1.09487
H    -2.32571  -2.52329   0.53835
H     2.56172   0.10063  -0.89164
H     2.68924  -1.68741   1.14681
H     0.64053  -3.44229   0.65333
H    -0.50790  -2.52536  -1.62809
