36
Generated by autodE on: 2022-06-03. E = -1251.660796 Ha. Imaginary frequency = -291.4 cm-1
C     3.94012   0.65754  -0.15807
C     2.95786  -0.18630   0.59002
O     3.19039  -1.26237   1.09970
C     1.57865   0.36728   0.63791
N     0.95280   1.30858   1.03798
N    -0.16964   1.78709   1.34675
C    -0.53752   3.00930   0.72617
C     0.41768   3.61689  -0.25752
O    -1.63086   3.46996   0.99635
C    -1.23252  -0.23512   0.19869
C    -2.07068   0.67548  -0.60407
C    -3.44598   0.95929  -0.06828
O    -1.66452   1.16974  -1.65162
C    -1.70273  -0.96254   1.48203
C    -2.25932  -2.32196   1.01003
C    -1.18628  -3.01546   0.61842
C     0.00809  -2.07432   0.87168
O    -0.43825  -1.36407   2.03090
C    -0.08545  -0.91362  -0.16998
C     0.47387  -1.06757  -1.55548
F     0.90818   0.07845  -2.10632
F     1.53069  -1.91055  -1.54213
F    -0.43171  -1.59877  -2.39897
H     4.94026   0.21066  -0.08886
H     3.93775   1.68495   0.23855
H     3.61703   0.71197  -1.21133
H     1.40171   3.78794   0.20522
H     0.55969   2.91195  -1.09319
H     0.00580   4.56071  -0.63318
H    -4.00419   0.01852   0.06964
H    -3.36349   1.43918   0.91918
H    -3.98684   1.61892  -0.75830
H    -2.29776  -0.38097   2.19069
H    -3.31610  -2.58100   0.96044
H    -1.11580  -4.00369   0.16625
H     0.99659  -2.51908   1.01028
