16
Generated by autodE on: 2022-06-02. E = -446.128258 Ha
C    -2.44912  -0.41989   0.29165
C    -1.00754  -0.06425   0.27923
C    -0.29516   0.77466  -0.47411
F    -0.69778   1.58207  -1.45995
C     1.19036   0.56612  -0.13766
C     1.57782  -0.84265  -0.65583
C     0.89461  -1.68771   0.12176
C     0.10206  -0.78126   1.09525
O     1.05636   0.29273   1.26928
H    -2.88637  -0.30007   1.29750
H    -3.02004   0.20216  -0.41335
H    -2.58838  -1.47865   0.00870
H     1.87125   1.39760  -0.35108
H     2.22820  -1.04200  -1.50676
H     0.83199  -2.77479   0.08338
H    -0.20764  -1.21697   2.05211
