29
Generated by autodE on: 2022-07-27. E = -857.261414 Ha
C    -3.34238  -1.59547   2.63158
O    -2.91959  -1.70287   1.26652
C    -1.93634  -0.87429   0.87653
O    -1.40700  -0.06755   1.62577
C    -1.68259  -1.04555  -0.54919
N    -0.75673  -0.39159  -1.24156
C    -0.97058  -0.36521  -2.71154
C     0.36184   0.19261  -0.70864
C     0.94300  -0.39642   0.51407
O     0.86919  -1.57865   0.80905
O     1.59079   0.49370   1.27174
C     2.23816  -0.01641   2.44381
C     1.00583   1.27676  -1.44625
O     0.44873   1.99993  -2.26264
O     2.31284   1.40818  -1.15416
C     2.99677   2.50535  -1.76709
H    -4.11704  -2.35865   2.76889
H    -3.75559  -0.59568   2.83097
H    -2.49877  -1.78213   3.31221
H    -2.38816  -1.65102  -1.11347
H    -1.49922   0.55429  -2.98370
H    -1.57957  -1.23536  -2.97760
H    -0.00593  -0.41099  -3.22550
H     2.99667  -0.76617   2.17551
H     2.71396   0.84629   2.92453
H     1.49998  -0.47001   3.12097
H     4.02116   2.47767  -1.37706
H     2.51816   3.46032  -1.50394
H     3.00696   2.39605  -2.86166
