45
Generated by autodE on: 2022-06-02. E = -1303.374526 Ha. Imaginary frequency = -295.7 cm-1
C    -2.75861  -2.50882   3.13398
O    -2.55049  -2.23194   1.74600
C    -1.31878  -1.79289   1.39879
O    -0.41505  -1.69218   2.21624
C    -1.31939  -1.47036  -0.02286
C    -1.45648   0.86335   1.05530
C    -2.23104   1.91134   0.23348
O    -1.37184   3.07182   0.45010
C    -0.18396   2.42619  -0.07031
C    -0.73682   2.00460  -1.42564
F     0.03045   1.93612  -2.52432
C    -2.01444   1.65103  -1.26657
C    -3.02799   1.06976  -2.18246
C    -0.12420   1.17673   0.85782
C     0.86890  -0.56513  -0.31224
C     1.60420  -1.32852   0.76234
O     1.71929  -2.53801   0.71607
O     2.23133  -0.56170   1.64982
C     3.02163  -1.24191   2.63470
C     1.84146   0.05770  -1.26610
O     2.01458  -0.24485  -2.43058
O     2.54714   1.01556  -0.65529
C     3.52846   1.69569  -1.45040
N    -0.27492  -1.15115  -0.81299
C    -0.54177  -1.22259  -2.26782
H    -2.08381  -3.30608   3.47913
H    -3.80170  -2.83451   3.22436
H    -2.59149  -1.60661   3.74124
H    -2.22128  -1.77412  -0.54904
H    -1.88864   0.40621   1.94005
H    -3.26426   2.10604   0.54143
H     0.69245   3.08167  -0.06994
H    -3.92484   1.71044  -2.23149
H    -2.63199   0.94200  -3.19937
H    -3.35978   0.08493  -1.81223
H     0.67670   1.04384   1.57784
H     3.80551  -1.84360   2.15303
H     3.47037  -0.45761   3.25488
H     2.38144  -1.89313   3.24685
H     3.04032   2.22082  -2.28382
H     4.01136   2.41461  -0.77890
H     4.26804   0.98482  -1.84552
H    -0.35212  -0.26894  -2.76176
H    -1.58584  -1.51146  -2.41069
H     0.11430  -1.98316  -2.70827
