30
Generated by autodE on: 2022-10-07. E = -1099.989587 Ha
N    -3.37997   2.70307   0.52323
C    -2.51273   1.98166   0.25579
C    -1.42731   1.07659  -0.07116
N    -0.13607   1.34187   0.59117
C     0.56216   0.26507  -0.11700
C     2.04115   0.15404   0.08693
C     2.76867  -0.75325  -0.69700
C     4.13982  -0.91292  -0.49320
C     4.79066  -0.17924   0.50512
C     4.06504   0.71721   1.29402
C     2.69313   0.88649   1.08457
O     0.27264   0.61088  -1.51857
C    -0.96038   1.14274  -1.53263
O    -1.52911   1.54156  -2.51351
C    -0.27471  -1.01372   0.19572
C     0.17634  -1.55829   1.56918
O     0.72921  -2.68165   1.59430
O    -0.01554  -0.79453   2.55964
C    -1.71336  -0.45639   0.19845
C    -2.71823  -1.01404  -0.83427
O    -2.25699  -1.60725  -1.84105
O    -3.92603  -0.75971  -0.59594
H    -0.20340   1.02682   1.57071
H     2.25836  -1.33213  -1.46940
H     4.70210  -1.61664  -1.11118
H     5.86318  -0.30863   0.66824
H     4.56767   1.29131   2.07569
H     2.13072   1.58931   1.69982
H    -0.12978  -1.76658  -0.58529
H    -2.15430  -0.51258   1.20121
