20
Generated by autodE on: 2022-10-07. E = -644.914168 Ha
N     4.47804  -1.34553  -0.46773
C     3.44125  -0.84238  -0.27056
C     2.21481  -0.22057  -0.02455
N     0.96528  -0.76468  -0.34729
C     0.00498   0.05972   0.01859
C    -1.42908  -0.10190  -0.11105
C    -2.27385   0.95022   0.29269
C    -3.65556   0.81319   0.17876
C    -4.20534  -0.36633  -0.33388
C    -3.36812  -1.41468  -0.73448
C    -1.98580  -1.28992  -0.62592
O     0.53693   1.14601   0.57144
C     1.98121   1.03544   0.58018
O     2.65337   1.93013   1.04815
H     0.82424  -1.66635  -0.80028
H    -1.84111   1.86830   0.69134
H    -4.30690   1.63165   0.49176
H    -5.28899  -0.47103  -0.42108
H    -3.79638  -2.33691  -1.13191
H    -1.34648  -2.11899  -0.93606
