10
Generated by autodE on: 2022-10-07. E = -455.051696 Ha
O     2.72883  -1.12644   0.34459
C     1.96796  -0.16484   0.04203
O     2.34028   0.98354  -0.32526
C     0.48180  -0.44471   0.13872
C    -0.48181   0.44460  -0.13902
C    -1.96796   0.16479  -0.04221
O    -2.72881   1.12668  -0.34384
O    -2.34029  -0.98365   0.32488
H     0.20076  -1.45310   0.46194
H    -0.20077   1.45300  -0.46222
