44
Generated by autodE on: 2022-10-07. E = -1158.680411 Ha
C    -3.85221  -1.22720  -2.09529
N    -2.95267  -0.94178  -0.98902
C    -2.41755   0.26057  -0.82571
O    -2.64646   1.25575  -1.51462
C    -1.38110   0.38498   0.33722
C    -2.01160   0.27197   1.73662
O    -2.10080   1.22567   2.47407
O    -2.38942  -0.95922   1.98043
C    -2.98727  -1.22642   3.26980
N    -0.74961   1.71887   0.19032
C     0.75659   1.53024  -0.00167
N     1.35010   1.74969   1.27473
N     1.17875   2.45109  -1.00911
C     2.55623   2.31061  -1.49455
C     0.75390  -0.00067  -0.49433
C     0.42751  -0.08199  -1.93504
N     0.12056  -0.17935  -3.04821
C     2.00396  -0.79344  -0.15325
C     2.99132  -1.05317  -1.11145
C     4.14747  -1.75068  -0.75582
C     4.31927  -2.20388   0.55455
C     3.32333  -1.96738   1.50658
C     2.16721  -1.26795   1.15688
O    -0.33915  -0.55222   0.24650
H    -4.23236  -2.24877  -1.98385
H    -3.32314  -1.13936  -3.05720
H    -4.69686  -0.52331  -2.09589
H    -2.66512  -1.69590  -0.37040
H    -3.89548  -0.62050   3.38822
H    -2.26766  -0.99193   4.06550
H    -3.22903  -2.29397   3.26613
H    -1.19317   2.16250  -0.64378
H    -0.94404   2.29344   1.02896
H     2.36681   1.70766   1.19943
H     1.05817   1.06314   1.97229
H     1.07302   3.38605  -0.61176
H     2.63861   1.50347  -2.23289
H     3.30025   2.13643  -0.69720
H     2.82472   3.24414  -2.00550
H     2.86387  -0.71796  -2.14167
H     4.91199  -1.94438  -1.51094
H     5.22319  -2.75117   0.83115
H     3.44104  -2.33448   2.52831
H     1.38448  -1.11270   1.89908
