26
Generated by autodE on: 2022-10-21. E = -632.167702 Ha
C     1.03337  -1.20002   0.32122
O    -0.07404  -0.57289   0.16584
N    -1.26160  -1.22903   0.35722
C    -2.29929  -0.36058   0.12028
C    -2.19081   0.99973  -0.27082
C    -3.33716   1.76532  -0.47953
C    -4.61684   1.22111  -0.31132
C    -4.73303  -0.12210   0.07477
C    -3.60122  -0.90214   0.28811
C     2.27906  -0.52436   0.12825
C     2.35644   0.84412  -0.22869
C     3.59701   1.44478  -0.40431
C     4.77566   0.70319  -0.23001
C     4.70869  -0.64986   0.12307
C     3.47219  -1.26394   0.30217
H     0.97824  -2.25742   0.60269
H    -1.20685   1.44746  -0.40995
H    -3.22716   2.81087  -0.78067
H    -5.50712   1.83106  -0.47835
H    -5.72213  -0.56752   0.21160
H    -3.69302  -1.94839   0.58884
H     1.43894   1.41941  -0.36337
H     3.65352   2.50027  -0.67921
H     5.74664   1.18346  -0.37000
H     5.62629  -1.22623   0.25878
H     3.41189  -2.31947   0.57718
