26
Generated by autodE on: 2022-10-26. E = -632.165286 Ha
C    -1.50626  -0.51212  -0.77786
O    -0.23469  -0.71279  -0.83187
N     0.66520  -0.09746  -0.01030
C     1.93172  -0.53114  -0.33762
C     2.26440  -1.45724  -1.35893
C     3.59499  -1.80872  -1.58330
C     4.63011  -1.26262  -0.81416
C     4.30940  -0.34618   0.19717
C     2.98721   0.01652   0.43560
C    -2.25791   0.34332   0.08669
C    -3.66503   0.33429  -0.11380
C    -4.49656   1.12517   0.66662
C    -3.94933   1.94461   1.66523
C    -2.56641   1.96480   1.87445
C    -1.71723   1.17663   1.09987
H    -2.02629  -1.11294  -1.52815
H     1.47600  -1.89539  -1.97073
H     3.82720  -2.52458  -2.37672
H     5.66858  -1.54535  -0.99927
H     5.10240   0.09200   0.80904
H     2.73995   0.73044   1.22466
H    -4.08654  -0.30553  -0.89257
H    -5.57597   1.10853   0.50181
H    -4.60422   2.56692   2.27937
H    -2.14314   2.60391   2.65261
H    -0.64279   1.18587   1.25567
