8
Generated by autodE on: 2022-10-21. E = -651.547895 Ha
C    -2.80274   0.37685   0.60355
O    -1.91037  -0.67310   0.15469
C    -0.66169  -0.34688   0.02330
C     0.51273  -0.08340  -0.11415
Cl    2.12041   0.26890  -0.30416
H    -2.78925   1.21041  -0.11404
H    -3.80094  -0.07378   0.64729
H    -2.49589   0.72648   1.60030
