34
Generated by autodE on: 2022-10-21. E = -1283.686276 Ha. Imaginary frequency = -338.7 cm-1
C    -3.05416   2.61363  -1.86880
O    -2.45792   1.29732  -1.83475
C    -1.16431   1.29567  -1.60651
C    -0.01038   1.68812  -1.42021
Cl    1.30469   2.66697  -1.11725
N     1.29707  -0.49940  -1.42840
C     1.84651  -0.89760  -0.23143
C     1.46654  -2.04119   0.51543
C     2.15110  -2.38463   1.68176
C     3.21570  -1.60919   2.14996
C     3.61034  -0.48500   1.40813
C     2.95357  -0.13825   0.23294
O     0.11283  -1.11972  -1.77015
C    -1.04162  -0.98052  -1.16788
C    -1.41508  -0.82619   0.22986
C    -2.66526  -1.39220   0.57239
C    -3.15439  -1.31119   1.87325
C    -2.41505  -0.64152   2.85439
C    -1.19350  -0.04460   2.52218
C    -0.69394  -0.12635   1.22520
H    -4.12288   2.46127  -2.06260
H    -2.60057   3.21093  -2.67421
H    -2.90828   3.11444  -0.89982
H     0.65094  -2.67304   0.16498
H     1.83894  -3.27463   2.23470
H     3.73888  -1.87949   3.06956
H     4.45034   0.12601   1.74929
H     3.27470   0.72563  -0.34979
H    -1.82421  -1.37518  -1.82370
H    -3.24254  -1.91296  -0.19464
H    -4.11411  -1.76851   2.12266
H    -2.79726  -0.57163   3.87537
H    -0.62734   0.50054   3.28029
H     0.22852   0.39121   0.98178
