33
Generated by autodE on: 2022-07-27. E = -820.210129 Ha
C     1.72056   0.84570  -1.97170
N     1.22540   0.07010  -0.82028
C     0.01107   0.25095  -0.31754
C    -0.62371  -0.77188   0.53623
C    -1.31531  -0.38524   1.69704
C    -1.96720  -1.33989   2.47943
C    -1.95468  -2.68415   2.09903
C    -1.28071  -3.07412   0.93431
C    -0.61018  -2.12992   0.16197
C    -0.74150   1.49021  -0.57878
C    -2.11638   1.41634  -0.87586
C    -2.85219   2.57996  -1.09340
C    -2.23457   3.83124  -0.99056
C    -0.87513   3.91459  -0.67121
C    -0.12927   2.75400  -0.47016
C     2.15398  -0.84995  -0.27497
C     2.15694  -1.13034   1.09867
N     2.18207  -1.36813   2.24572
C     3.08203  -1.49720  -1.10403
N     3.87340  -2.04745  -1.77160
H     2.19833   0.14443  -2.66824
H     2.46492   1.58097  -1.64033
H     0.88825   1.33771  -2.48025
H    -1.32990   0.66563   1.99040
H    -2.49038  -1.03045   3.38677
H    -2.47102  -3.43054   2.70690
H    -1.27957  -4.12220   0.62721
H    -0.08280  -2.44037  -0.74137
H    -2.59985   0.44098  -0.95010
H    -3.91382   2.51078  -1.34006
H    -2.81482   4.74253  -1.15208
H    -0.39361   4.88977  -0.57169
H     0.92579   2.82784  -0.20324
