33
Generated by autodE on: 2022-06-04. E = -820.210122 Ha
C     1.45766   1.84157   1.43001
N     0.33684   1.27738   0.65724
C     0.34640   0.02915   0.20782
C     1.60822  -0.71768   0.06823
C     1.66066  -2.06922   0.46140
C     2.83656  -2.80126   0.30603
C     3.96495  -2.20468  -0.26729
C     3.91384  -0.86992  -0.68320
C     2.74630  -0.12696  -0.51447
C    -0.90231  -0.65123  -0.18724
C    -2.04027  -0.60222   0.64170
C    -3.18655  -1.31303   0.29733
C    -3.22356  -2.06373  -0.88496
C    -2.10049  -2.11223  -1.71459
C    -0.94074  -1.41929  -1.36348
C    -0.72861   2.17660   0.40767
C    -1.04982   3.17193   1.34247
N    -1.33656   4.01775   2.10213
C    -1.47762   2.08648  -0.77410
N    -2.10715   2.03549  -1.76101
H     1.03622   2.36642   2.29738
H     2.01717   2.55957   0.81681
H     2.11100   1.04131   1.78514
H     0.77898  -2.53618   0.90319
H     2.87208  -3.84358   0.62997
H     4.88269  -2.78270  -0.39710
H     4.78661  -0.40619  -1.14789
H     2.70728   0.90739  -0.85849
H    -2.01870  -0.01545   1.56136
H    -4.05825  -1.28350   0.95470
H    -4.12880  -2.61202  -1.15547
H    -2.12384  -2.69542  -2.63765
H    -0.06155  -1.46172  -2.00838
