49
Generated by autodE on: 2022-06-04. E = -1464.888691 Ha. Imaginary frequency = -293.8 cm-1
C    -0.12025   0.25930  -2.80408
N    -0.13261  -0.29890  -1.43780
C    -0.98219   0.17500  -0.47978
C    -1.60439  -0.81234   0.47564
C    -1.87397  -0.54577   1.82618
C    -2.58779  -1.46125   2.60068
C    -3.07196  -2.64435   2.03427
C    -2.85353  -2.89608   0.67779
C    -2.13382  -1.98559  -0.09507
C    -1.98992   1.23120  -0.84955
C    -2.92741   0.97557  -1.86736
C    -3.92737   1.90244  -2.16117
C    -4.02197   3.09203  -1.43141
C    -3.11651   3.33737  -0.39718
C    -2.11180   2.41127  -0.10213
C     0.69051   1.10629   0.83400
C     1.17879   2.50057   0.33714
C     1.35919   2.44905  -1.17559
C     2.41798   1.65569  -1.37364
C     2.87126   1.24226   0.02421
O     2.56203   2.44068   0.77252
C     1.79667   0.29395   0.64363
C     2.27187  -0.70505   1.63718
F     3.04364  -0.10442   2.58115
F     3.05160  -1.66530   1.09485
F     1.27227  -1.31328   2.29807
C     0.87700  -1.20466  -1.12737
C     0.68547  -2.37786  -0.33755
N     0.65318  -3.39398   0.23114
C     1.97489  -1.36152  -2.02203
N     2.91367  -1.53565  -2.69115
H     0.90073   0.30768  -3.18855
H    -0.71838  -0.39730  -3.45231
H    -0.54354   1.26356  -2.81232
H    -1.54775   0.38422   2.28840
H    -2.77273  -1.24165   3.65448
H    -3.62981  -3.35819   2.64457
H    -3.24438  -3.80484   0.21485
H    -1.98073  -2.18651  -1.15665
H    -2.87948   0.04013  -2.42692
H    -4.64044   1.68974  -2.96091
H    -4.80511   3.81786  -1.66161
H    -3.18827   4.25493   0.19106
H    -1.43390   2.61006   0.72498
H     0.04079   1.03375   1.69852
H     0.66132   3.36489   0.76327
H     0.69826   2.91851  -1.90136
H     2.85916   1.30642  -2.30436
H     3.91221   0.92943   0.15152
