48
Generated by autodE on: 2022-06-23. E = -1239.757359 Ha
C    -4.24175   1.94330  -0.85886
O    -3.10034   1.69885  -0.02582
C    -1.91132   1.64339  -0.62826
O    -1.74882   1.89941  -1.80464
C    -0.80883   1.26204   0.35718
C    -0.83217  -0.22748   0.84283
N    -2.10338  -0.88398   0.94172
C    -2.90592  -0.61462   2.11894
C    -2.66929  -1.37310  -0.21306
C    -1.98668  -1.53025  -1.36889
C    -0.54074  -1.14541  -1.51309
C     0.16345  -0.90652  -0.14387
C     0.70826  -2.20762   0.45246
N    -0.07919  -3.28466   0.31800
O     1.78917  -2.25429   1.05009
C     1.26419   0.19480  -0.28556
C     2.01091  -0.02456  -1.63298
C     2.05084   1.08746  -2.63552
O     2.52878  -1.10736  -1.83573
C     2.34858   0.18906   0.82100
O     3.54302   0.15417   0.60680
O     1.82894   0.42942   2.02615
C     2.74805   0.48281   3.12505
N     0.50132   1.43393  -0.22479
C     1.16776   2.68810   0.06150
H    -4.15353   2.91777  -1.35988
H    -4.33416   1.14822  -1.61332
H    -5.11132   1.93591  -0.19177
H    -0.95499   1.90836   1.23974
H    -0.37940  -0.22562   1.83936
H    -3.78289  -1.27657   2.12368
H    -3.25896   0.43044   2.16068
H    -2.31885  -0.81660   3.02874
H    -3.71647  -1.67289  -0.12713
H    -2.50178  -1.94838  -2.23506
H    -0.46173  -0.23096  -2.12186
H     0.01000  -1.91854  -2.06849
H     0.22096  -4.16458   0.72638
H    -0.97474  -3.23364  -0.16212
H     1.07284   1.58061  -2.71445
H     2.77029   1.84932  -2.29111
H     2.38432   0.69589  -3.60518
H     3.49410   1.27420   2.96663
H     2.14472   0.70129   4.01348
H     3.25599  -0.48603   3.23882
H     0.60780   3.52350  -0.38799
H     1.26199   2.88233   1.14795
H     2.17741   2.69476  -0.36843
