20
Generated by autodE on: 2022-06-23. E = -457.715334 Ha
C     3.09788  -0.59364  -0.35955
N     1.77758   0.00939  -0.44074
C     1.64748   1.32684  -0.89783
C     0.47749   1.98497  -0.88935
C    -0.80808   1.37531  -0.38700
C    -0.56221  -0.03483   0.12467
C    -1.65150  -0.84451   0.69483
N    -2.87318  -0.25580   0.73899
O    -1.49370  -2.00647   1.12150
C     0.67398  -0.60576   0.07038
H     3.70922  -0.12954   0.43345
H     3.62996  -0.48145  -1.31634
H     2.99572  -1.66417  -0.14132
H     2.57050   1.77802  -1.26628
H     0.45435   3.00861  -1.27010
H    -1.57099   1.37655  -1.19287
H    -1.24586   2.01412   0.40712
H    -3.64943  -0.77775   1.13055
H    -3.03997   0.68694   0.41132
H     0.82229  -1.61956   0.44600
