28
Generated by autodE on: 2022-07-28. E = -782.000063 Ha
C    -4.04546   0.64938  -1.69324
O    -2.99411   1.32791  -0.99287
C    -1.92561   0.59049  -0.65626
O    -1.81976  -0.59608  -0.91669
C    -0.99157   1.41715   0.11486
N     0.16002   0.99383   0.61100
C     0.70766   1.79366   1.73658
C     0.87605  -0.05700   0.08505
C     0.89874  -0.30891  -1.35838
C     0.62490   0.82247  -2.33246
O     1.24731  -1.39970  -1.81328
C     1.65689  -0.91870   0.97820
O     2.58497  -1.63732   0.64274
O     1.22251  -0.86297   2.25505
C     1.98866  -1.58462   3.22478
H    -3.66303   0.20494  -2.62361
H    -4.47997  -0.14072  -1.06353
H    -4.79966   1.41233  -1.91715
H    -1.33571   2.40296   0.42394
H     1.78255   1.61664   1.82489
H     0.52542   2.85150   1.51081
H     0.19295   1.52269   2.66521
H    -0.28066   0.60046  -2.91733
H     1.47120   0.83026  -3.03624
H     0.52190   1.81738  -1.88131
H     3.03155  -1.23466   3.23655
H     1.51326  -1.38749   4.19297
H     1.97157  -2.66290   3.00883
