48
Generated by autodE on: 2022-06-23. E = -1239.682621 Ha. Imaginary frequency = -335.8 cm-1
C    -3.63803   1.22030  -2.15726
O    -2.79833   1.58625  -1.05827
C    -1.48536   1.32255  -1.18309
O    -1.00510   0.85682  -2.20915
C    -0.78331   1.62710   0.05968
C    -1.18323  -0.19977   1.11797
N    -2.55782  -0.35966   1.15901
C    -3.35191   0.58404   1.92413
C    -3.16522  -1.24050   0.27311
C    -2.47463  -1.97075  -0.62055
C    -0.98446  -1.83404  -0.80463
C    -0.35694  -1.11854   0.38592
C     0.67025  -1.84767   1.17605
N     1.51727  -2.64271   0.46774
O     0.72664  -1.78339   2.41494
C     1.31793   0.54185  -0.27452
C     1.43440   0.23683  -1.75514
C     1.70396   1.41099  -2.65788
O     1.54086  -0.91354  -2.15334
C     2.59117   0.16508   0.40701
O     3.55563  -0.30462  -0.17647
O     2.55820   0.32099   1.72966
C     3.70342  -0.12052   2.46762
N     0.59158   1.61243   0.19212
C     1.09152   2.52636   1.23752
H    -3.32699   1.74058  -3.07474
H    -3.60298   0.13294  -2.31949
H    -4.65288   1.52445  -1.87542
H    -1.27743   2.39135   0.66065
H    -0.76539   0.19000   2.04896
H    -4.33255   0.14217   2.14769
H    -3.50721   1.52910   1.37711
H    -2.84613   0.80924   2.87455
H    -4.24829  -1.32181   0.38162
H    -3.01282  -2.69092  -1.24099
H    -0.77320  -1.30634  -1.75028
H    -0.52998  -2.82912  -0.92147
H     2.29827  -3.04599   0.97596
H     1.66302  -2.42847  -0.51694
H     1.15653   2.31164  -2.35963
H     1.48067   1.14536  -3.69981
H     2.78469   1.62474  -2.57097
H     4.59413   0.45734   2.18161
H     3.46268   0.04867   3.52319
H     3.88451  -1.18904   2.28452
H     0.60516   3.49830   1.08905
H     0.86061   2.15707   2.24635
H     2.17157   2.66320   1.13578
