40
Generated by autodE on: 2022-06-18. E = -861.214876 Ha
C    -4.56772  -1.45055   1.00062
C    -3.48381  -1.36528   0.20298
C    -3.27752  -2.30109  -0.95870
C    -2.46482  -0.34349   0.46627
C    -1.35056  -0.14925  -0.25938
C    -0.32501   0.89597   0.05813
C    -0.12565   1.96665  -1.06249
C     0.09382   3.36586  -0.47584
C    -1.21837   2.00580  -2.12553
N     1.15444   1.57076  -1.72130
N     1.79905   0.73534  -1.08189
C     1.11452   0.33243   0.18149
C     1.89080   0.90969   1.39495
C     3.38661   0.88290   1.31228
O     1.28682   1.33460   2.35751
C     1.16264  -1.19449   0.37837
O     0.68653  -1.69247   1.40053
N     1.73248  -1.90233  -0.60335
C     1.83747  -3.34800  -0.54025
H    -5.34279  -2.20371   0.83298
H    -4.70509  -0.76653   1.84373
H    -2.33653  -2.86544  -0.84712
H    -4.10512  -3.01920  -1.04526
H    -3.19919  -1.74477  -1.90758
H    -2.64370   0.30002   1.33586
H    -1.14929  -0.78063  -1.12965
H    -0.59427   1.38677   0.99997
H     0.87267   3.36406   0.30083
H     0.38972   4.07349  -1.26460
H    -0.84455   3.72015  -0.02410
H    -0.99296   2.78558  -2.86824
H    -2.18529   2.23988  -1.65754
H    -1.31433   1.04464  -2.64920
H     3.82103   1.17334   2.27718
H     3.74368  -0.11387   1.01170
H     3.71394   1.58617   0.52949
H     2.14931  -1.39402  -1.37783
H     2.44982  -3.66648   0.31826
H     0.84270  -3.80857  -0.43959
H     2.30485  -3.70935  -1.46396
