40
Generated by autodE on: 2022-06-18. E = -861.166075 Ha. Imaginary frequency = -419.0 cm-1
C    -3.13835  -2.40927   1.73603
C    -2.73100  -1.76212   0.62048
C    -3.01583  -2.30535  -0.75522
C    -1.97426  -0.52400   0.74270
C    -1.45705   0.18189  -0.29980
C    -0.68366   1.37810  -0.12742
C    -0.26572   2.24139  -1.17718
C    -0.21816   3.72105  -0.85824
C    -0.64106   1.89785  -2.60360
N     1.64733   1.98729  -1.37460
N     2.04619   1.11425  -0.70612
C     1.50056   0.23811   0.19398
C     1.56054   0.58013   1.60760
C     2.17145   1.90050   1.99834
O     1.07136  -0.17568   2.46097
C     1.23008  -1.10336  -0.38562
O     1.30209  -1.28485  -1.61236
N     0.85833  -2.04343   0.49926
C     0.38868  -3.35571   0.11425
H    -3.69378  -3.34934   1.67958
H    -2.92104  -2.01012   2.73132
H    -3.57635  -3.24907  -0.70164
H    -3.60115  -1.58622  -1.35167
H    -2.08053  -2.48826  -1.30814
H    -1.80007  -0.15837   1.76028
H    -1.60017  -0.18909  -1.31623
H    -0.65008   1.78568   0.88641
H     0.12365   3.90051   0.17228
H     0.44981   4.25660  -1.55032
H    -1.22615   4.15759  -0.96289
H    -1.72098   2.05114  -2.76684
H    -0.09963   2.54553  -3.30908
H    -0.39926   0.85276  -2.84408
H     3.20907   1.97093   1.63594
H     1.60920   2.73444   1.54957
H     2.15211   1.99646   3.09107
H     0.78234  -1.73046   1.46979
H     0.19736  -3.37421  -0.96539
H     1.13293  -4.13571   0.34740
H    -0.54103  -3.59466   0.65112
