23
Generated by autodE on: 2022-06-12. E = -998.312668 Ha
Cl   -0.61715  -2.57070   0.00712
C    -1.04058  -0.93207  -0.31187
C    -0.29778   0.19293  -0.29880
C     1.11084   0.46198  -0.04155
C     2.09904  -0.53985  -0.15815
C     3.43700  -0.25317   0.10761
C     3.82309   1.03432   0.49888
C     2.85595   2.03695   0.61617
C     1.51595   1.75761   0.34386
C    -1.38233   1.30244  -0.46744
C    -2.19912   1.35019   0.84251
C    -2.90933   0.21832   0.84380
C    -2.51196  -0.49337  -0.47113
O    -2.31654   0.63477  -1.33567
H     1.81597  -1.54517  -0.46909
H     4.18671  -1.04153   0.00573
H     4.87262   1.25440   0.70734
H     3.14576   3.04566   0.91985
H     0.77461   2.55256   0.44388
H    -1.04030   2.25254  -0.88953
H    -2.12584   2.13155   1.59808
H    -3.58016  -0.18926   1.59905
H    -3.20224  -1.23601  -0.88480
