20
Generated by autodE on: 2022-06-12. E = -494.844220 Ha
C    -1.61477   2.12155  -0.90561
N    -1.41233   0.83704  -0.90686
C    -0.45204   0.01823  -0.32183
C    -0.56758  -1.39043  -0.57612
C    -1.70367  -1.89829  -1.45030
O     0.23181  -2.23287  -0.10606
C     0.59497   0.63568   0.50452
O     0.65141   1.87005   0.70366
N     1.50759  -0.19929   1.04865
C     2.57958   0.29313   1.88213
H    -0.93964   2.77239  -0.35825
H    -2.47363   2.48759  -1.46880
H    -2.10212   0.31266  -1.45084
H    -2.68988  -1.66576  -1.01527
H    -1.60974  -2.98811  -1.53337
H    -1.66974  -1.46683  -2.46431
H     1.38555  -1.19299   0.84042
H     3.22267   1.00915   1.34319
H     2.19932   0.80649   2.78162
H     3.19814  -0.55489   2.20302
