30
Generated by autodE on: 2022-05-25. E = -854.463276 Ha
C     4.76935   0.79277   0.39047
N     3.46772   0.16185   0.27045
C     2.33062   0.86901   0.34395
O     2.28776   2.08087   0.56610
C     1.05450   0.09080   0.09268
C     0.81129  -1.28783   0.71121
C    -0.51094  -1.49687   0.62970
C    -1.36127  -2.66556   0.96436
C    -1.04939  -0.23037  -0.05879
C    -2.55077  -0.00476  -0.06691
O    -3.25632  -0.57012  -0.90208
N    -2.99256   0.77964   0.92549
C    -4.39585   1.07434   1.14013
N    -0.19033   0.78851   0.48089
O    -0.58594  -0.35252  -1.49314
C     0.74887  -0.17595  -1.41620
O     1.50339  -0.23672  -2.35284
H     5.00205   1.41352  -0.49053
H     4.80048   1.43724   1.28058
H     5.53489   0.01348   0.48708
H     3.42183  -0.81554  -0.00044
H     1.59425  -1.96707   1.04532
H    -2.14490  -2.38323   1.68733
H    -1.87974  -3.02608   0.06020
H    -0.76484  -3.48492   1.38819
H    -2.30130   1.19954   1.54047
H    -4.65373   2.08432   0.78270
H    -5.00289   0.34331   0.59246
H    -4.63288   1.01108   2.21137
H    -0.28965   1.66451  -0.04286
