23
Generated by autodE on: 2022-07-26. E = -737.710172 Ha
C    -4.89377  -0.30490  -0.53191
N    -3.45294  -0.34450  -0.68094
C    -2.60403   0.05451   0.27774
O    -2.90897   0.49946   1.38798
C    -1.16884  -0.06358  -0.07028
N    -0.18386   0.27822   0.72635
C     1.03035   0.06099   0.11201
C     2.29182   0.36443   0.78031
O     2.29939   0.83542   1.92992
N     3.40211   0.09450   0.05768
C     4.74508   0.32361   0.54385
C     0.75872  -0.45909  -1.17260
O     1.42271  -0.82491  -2.12585
O    -0.68923  -0.51346  -1.22448
H    -5.34693   0.32458  -1.31277
H    -5.32106  -1.31658  -0.60738
H    -5.13839   0.11345   0.45097
H    -3.06308  -0.69851  -1.55073
H    -0.30641   0.65653   1.66790
H     3.27553  -0.28948  -0.87574
H     5.28438   1.03866  -0.09783
H     4.68966   0.73515   1.55843
H     5.32250  -0.61419   0.57484
