30
Generated by autodE on: 2022-05-25. E = -854.395179 Ha. Imaginary frequency = -486.7 cm-1
C     4.80478   0.97731   0.35603
N     3.47567   0.63262  -0.10692
C     2.38239   0.88143   0.63546
O     2.40881   1.41264   1.75374
C     1.10597   0.43962   0.04268
C     0.78170  -1.76489   0.59668
C    -0.46826  -1.83022   0.66054
C    -1.71261  -2.56071   0.97219
C    -1.02779   0.06491  -0.09489
C    -2.48380   0.27742   0.13457
O    -2.87067   0.62762   1.25432
N    -3.28520   0.02251  -0.90674
C    -4.72860   0.11942  -0.79404
N    -0.10053   0.80276   0.57066
O    -0.55037  -0.12753  -1.37536
C     0.83992  -0.01144  -1.30777
O     1.56012  -0.27333  -2.25064
H     4.92801   2.06799   0.45701
H     5.00970   0.52185   1.33715
H     5.53969   0.60502  -0.36763
H     3.34689   0.23440  -1.03473
H     1.80996  -2.09175   0.64424
H    -2.30771  -2.01196   1.71865
H    -2.33858  -2.65949   0.07171
H    -1.49695  -3.56710   1.36202
H    -2.86598  -0.23927  -1.79388
H    -5.04590   1.15730  -0.60568
H    -5.18008  -0.22562  -1.73144
H    -5.09618  -0.50612   0.03372
H    -0.21622   1.03254   1.55715
