17
Generated by autodE on: 2022-07-27. E = -418.328310 Ha
C     1.85458   0.00575  -0.64718
C     1.50482   0.46969   0.74880
O     2.29789   1.20426   1.36501
C     0.35016  -0.04597   1.44028
N    -0.71730  -0.68864   0.92750
C    -1.30910  -0.67509  -0.27482
C    -2.34525  -1.70516  -0.60515
C    -1.02543   0.35341  -1.19532
N    -0.87597   1.22379  -1.96138
H     1.32691  -0.90863  -0.95474
H     2.94030  -0.17044  -0.66816
H     1.62664   0.79136  -1.38504
H     0.37455  -0.01246   2.53037
H    -1.20487  -1.28819   1.60253
H    -3.16366  -1.26283  -1.19138
H    -2.76004  -2.13665   0.31960
H    -1.91323  -2.53020  -1.19757
