29
Generated by autodE on: 2022-06-17. E = -799.967153 Ha. Imaginary frequency = -306.0 cm-1
C     2.58736  -0.48271  -0.78539
C     2.23625  -0.49010   0.67503
O     2.96240   0.06640   1.49767
C     1.04044  -1.17267   1.20608
N     0.16019  -2.00213   0.57769
C    -0.66905  -1.77022  -0.47028
C    -1.84147  -2.69032  -0.66374
C    -0.25172  -1.10707  -1.66594
N    -0.05634  -0.61216  -2.70094
C    -1.55089   0.12288   0.63250
C    -1.92575   0.88359  -0.56130
O    -2.95011   0.64211  -1.20705
C    -1.00439   1.96474  -0.99340
C     0.03401   2.34783  -0.23025
C     0.28861   1.73392   1.09771
O     1.10497   2.23849   1.86863
C    -0.48568   0.53018   1.44739
H     2.02613   0.31717  -1.29166
H     3.65979  -0.26604  -0.87877
H     2.35107  -1.43413  -1.28015
H     1.17652  -1.44086   2.25499
H    -0.27142  -2.65436   1.23494
H    -1.59117  -3.51854  -1.34702
H    -2.16622  -3.10258   0.30222
H    -2.67120  -2.12086  -1.10796
H    -2.32110  -0.53893   1.03093
H    -1.22853   2.43573  -1.95343
H     0.70892   3.15493  -0.52567
H    -0.47251   0.26708   2.50526
