12
Generated by autodE on: 2022-06-01. E = -1076.563191 Ha
C     1.98304  -0.00331   0.06364
C     0.54532   0.39256  -0.00344
Cl    0.31801   2.14349  -0.10388
C    -0.54529  -0.39257   0.00352
C    -1.98298   0.00336  -0.06362
Cl   -0.31805  -2.14351   0.10385
H     2.52129   0.35983  -0.82695
H     2.09059  -1.09284   0.12342
H     2.46385   0.45142   0.94501
H    -2.09051   1.09295  -0.12229
H    -2.52151  -0.36074   0.82640
H    -2.46351  -0.45042  -0.94564
