29
Generated by autodE on: 2022-06-01. E = -800.070478 Ha
C     5.32416   0.49401   0.25760
N     3.97276   0.02373   0.02844
C     2.90751   0.75785   0.40153
O     2.99868   1.85414   0.97082
C     1.60579   0.15190   0.06925
O     1.53222  -0.97823  -0.64008
C     0.16556  -1.33619  -0.81296
O    -0.12533  -2.35195  -1.43015
C    -0.55717  -0.30461  -0.16177
C    -2.01035  -0.18581  -0.09196
C    -2.78544  -1.36465  -0.03070
C    -4.17785  -1.30258   0.00343
C    -4.83241  -0.06623  -0.01734
C    -4.07707   1.10829  -0.08704
C    -2.68317   1.05384  -0.13287
N     0.38042   0.57065   0.37115
C     0.07382   1.72402   1.22249
H     6.02733  -0.25780  -0.11929
H     5.51281   0.65265   1.33102
H     5.50848   1.44744  -0.26279
H     3.82359  -0.86383  -0.44070
H    -2.28377  -2.33263  -0.00707
H    -4.75643  -2.22809   0.05459
H    -5.92330  -0.01895   0.01416
H    -4.57655   2.07948  -0.12010
H    -2.12006   1.98190  -0.22797
H     0.90875   1.88560   1.90738
H    -0.84312   1.50718   1.78004
H    -0.06976   2.62011   0.60507
