57
Generated by autodE on: 2022-12-30. E = -1524.066197 Ha
C    -9.22798  -4.69488   9.82538
N   -10.43333  -4.09509   9.28888
C   -10.45787  -3.48412   8.09307
O    -9.45060  -3.30066   7.41565
C   -11.88523  -3.01062   7.62722
C   -12.25575  -2.02693   8.76424
O   -12.85379  -2.41764   9.77236
N   -11.77256  -0.78188   8.65549
C   -11.99172   0.20644   9.69603
C   -11.73744  -2.40001   6.20477
C   -12.80672  -1.44539   5.66077
C   -14.26477  -1.90744   5.65491
C   -14.94181  -1.89571   7.03749
C   -15.32867  -3.27839   7.57508
C   -15.89436  -3.17868   8.99786
O   -16.26935  -3.87287   6.65266
C   -17.61300  -3.43271   6.69115
C   -14.19172  -4.27516   7.54416
C   -12.84706  -4.18812   7.57306
C   -12.38051  -5.67903   7.49950
C   -11.03767  -6.03424   7.07934
N    -9.99008  -6.38916   6.73509
N   -13.44088  -6.26046   6.65159
C   -14.49828  -5.78260   7.49024
C   -15.87127  -6.33385   7.13560
O   -16.11209  -6.81261   6.05137
O   -16.69928  -6.31076   8.16704
C   -18.02435  -6.82245   7.93932
O   -14.13158  -6.31140   8.86676
C   -12.79327  -6.26053   8.90002
O   -12.10353  -6.59790   9.82371
H    -9.49918  -5.31451  10.68850
H    -8.74971  -5.33020   9.06506
H    -8.50002  -3.93147  10.14489
H   -11.28177  -4.11950   9.84730
H   -11.29674  -0.49955   7.80607
H   -11.45151   1.12333   9.43189
H   -11.62436  -0.16090  10.66609
H   -13.06303   0.44123   9.80214
H   -10.76972  -1.88061   6.17274
H   -11.62908  -3.25590   5.52022
H   -12.50377  -1.23030   4.62294
H   -12.75186  -0.47883   6.18697
H   -14.34656  -2.90986   5.20441
H   -14.82156  -1.23563   4.98380
H   -14.32476  -1.37637   7.78205
H   -15.87407  -1.31308   6.99863
H   -15.10304  -2.82783   9.67013
H   -16.72409  -2.45815   9.03280
H   -16.25390  -4.15476   9.34896
H   -18.12962  -3.74570   7.61318
H   -18.11533  -3.89839   5.83147
H   -17.69624  -2.33699   6.59044
H   -13.40563  -7.28594   6.66409
H   -18.50178  -6.28543   7.10897
H   -17.97871  -7.89614   7.70868
H   -18.57377  -6.65426   8.87186
