41
Generated by autodE on: 2022-12-30. E = -882.295650 Ha
C    -0.11663   1.30163   4.00200
N     0.00412   0.70293   2.68588
C     0.85246   1.17997   1.76957
O     1.59846   2.14579   1.99013
C     0.83701   0.50371   0.38664
C     2.24594   0.01082  -0.04247
O     2.37862  -1.04297  -0.67330
N     3.26859   0.82225   0.25070
C     4.62812   0.50762  -0.14019
C    -0.13389  -0.58277   0.25827
C    -1.09977  -1.14955  -0.20922
C    -2.24299  -1.27502  -1.14474
C    -1.91003  -2.20666  -2.31269
O    -3.44118  -1.67322  -0.47646
C    -3.39671  -2.92428   0.18302
C    -2.51410   0.18094  -1.60508
C    -1.46498   0.89226  -2.47922
C     0.01716   1.00305  -2.05266
C     0.32804   1.58208  -0.65492
H    -0.80261   0.69492   4.60491
H    -0.50975   2.32903   3.94039
H     0.86176   1.34061   4.50390
H    -0.60862  -0.06570   2.42954
H     3.06124   1.63288   0.83549
H     5.28235   1.33888   0.14989
H     4.98753  -0.41302   0.34808
H     4.70072   0.36166  -1.22904
H    -1.70076  -3.22773  -1.96457
H    -1.02285  -1.84741  -2.85206
H    -2.76173  -2.23494  -3.00968
H    -3.36666  -3.77350  -0.52156
H    -2.52162  -2.99699   0.85573
H    -4.31164  -3.00407   0.78749
H    -3.46045   0.15638  -2.17094
H    -2.71059   0.76332  -0.69157
H    -1.85157   1.91527  -2.62636
H    -1.47132   0.43192  -3.48118
H     0.51059   0.02630  -2.16201
H     0.49758   1.65227  -2.80170
H     1.09519   2.36645  -0.71214
H    -0.57077   2.04539  -0.21910
