16
Generated by autodE on: 2022-12-30. E = -641.718231 Ha
C    -4.11934  -0.04752   0.21032
O    -2.72387  -0.40091   0.14544
C    -1.86550   0.59999   0.05652
O    -2.12939   1.78353   0.02062
C    -0.46981   0.11842   0.00524
N     0.57760   0.90657  -0.06820
C     1.73345   0.14837  -0.08623
C     3.03258   0.66608  -0.15791
N     4.12466   1.07299  -0.21726
C     1.34309  -1.22120  -0.01700
O     1.90735  -2.28868   0.00061
O    -0.10077  -1.15151   0.03887
H    -4.66325  -0.99580   0.27411
H    -4.30986   0.56793   1.10061
H    -4.40983   0.50528  -0.69389
H     0.51704   1.92691  -0.10684
