39
Generated by autodE on: 2022-06-17. E = -765.066772 Ha
C     3.12202   2.80421   0.36297
N     2.47559   1.66033  -0.23941
C     1.55569   0.93148   0.43949
O     1.16510   1.23782   1.57651
N     1.02673  -0.14382  -0.24667
N     1.53246  -0.44610  -1.54853
N     1.88697  -1.82203  -1.51998
C     3.23881  -1.96679  -0.98398
C     0.83814  -2.43017  -0.69264
C     0.41624  -1.34571   0.36726
C     0.98199  -1.69773   1.75384
C    -1.08796  -1.23756   0.45083
C    -1.81102  -0.13595   0.18005
C    -3.25995  -0.07109   0.28667
C    -4.04602   1.00311   0.03509
C    -3.53362   2.34443  -0.41037
C    -5.53890   0.92000   0.19264
H     3.82612   2.52053   1.16508
H     3.68131   3.34621  -0.41074
H     2.37859   3.48896   0.79819
H     2.79963   1.27793  -1.12209
H     0.74030  -0.36329  -2.19099
H     3.38031  -1.48538   0.00054
H     3.95467  -1.52189  -1.68927
H     3.47100  -3.03553  -0.88165
H    -0.02432  -2.66917  -1.33212
H     1.18964  -3.35593  -0.22230
H     0.58812  -2.67959   2.05579
H     0.68675  -0.95702   2.50511
H     2.07953  -1.76092   1.73152
H    -1.59550  -2.15301   0.77850
H    -1.27576   0.76378  -0.13568
H    -3.75385  -0.99648   0.60704
H    -3.83789   3.12746   0.30655
H    -3.98563   2.62449  -1.37837
H    -2.44204   2.38632  -0.51818
H    -5.89783   1.66336   0.92707
H    -6.04790   1.16051  -0.75809
H    -5.86723  -0.07767   0.51965
