23
Generated by autodE on: 2022-06-17. E = -351.521383 Ha
C    -3.73369   0.33637  -0.49817
C    -2.57679   0.13529   0.17032
C    -2.56615  -0.13690   1.65291
C    -1.30272   0.18076  -0.54448
C    -0.07801   0.00017   0.01080
C     1.15707   0.05624  -0.74421
C     2.41595  -0.10822  -0.26473
C     3.60479  -0.01904  -1.17930
C     2.74728  -0.38428   1.17443
H    -4.70042   0.30767   0.01220
H    -3.73856   0.53408  -1.57455
H    -3.58571  -0.14583   2.06337
H    -1.98195   0.62675   2.19289
H    -2.09446  -1.10853   1.87522
H    -1.36418   0.37972  -1.62124
H    -0.00909  -0.19772   1.08393
H     1.04719   0.25452  -1.81732
H     4.29610   0.77583  -0.84592
H     3.31452   0.18626  -2.22013
H     4.18714  -0.95778  -1.15735
H     3.31210  -1.32922   1.26174
H     3.41001   0.40506   1.57138
H     1.86671  -0.45061   1.82615
