16
Generated by autodE on: 2022-06-17. E = -413.524088 Ha
C     3.04671   0.37557  -0.68654
N     2.45757  -0.80703  -0.10277
N     1.21218  -0.71713   0.07919
N     0.43522   0.29063  -0.19390
C    -0.88765  -0.01679   0.16315
O    -1.22888  -1.10194   0.66340
N    -1.73333   0.99822  -0.09937
C    -3.15451   0.95047   0.16303
H     4.12286   0.20681  -0.80718
H     2.59646   0.60551  -1.66807
H     2.88084   1.26228  -0.04996
H     0.73769  -1.54351   0.49865
H    -1.33272   1.83386  -0.51364
H    -3.45961   1.75952   0.84560
H    -3.39766  -0.01171   0.62888
H    -3.73681   1.04770  -0.76751
