43
Generated by autodE on: 2022-06-18. E = -917.607835 Ha
C     0.19934   0.58890  -2.83631
N     0.73966   0.14320  -1.56565
C     1.59625   0.90567  -0.85314
C     2.20447   0.54054   0.31510
C     3.06591   1.53245   0.96280
N     3.59362   1.18630   2.16809
O     3.33033   2.64909   0.46550
C     1.92841  -0.80592   0.93056
C     1.29207  -1.80093  -0.05010
N     0.42354  -2.73966   0.66065
N    -0.77340  -1.97365   0.82348
C    -1.82215  -2.71868   1.47572
C    -1.10014  -1.31817  -0.47490
C    -1.93508  -2.21893  -1.39529
C    -1.76835   0.02763  -0.20105
C    -1.29078   0.84731   0.83517
C    -1.85510   2.09938   1.08493
C    -2.91973   2.56144   0.30387
C    -3.41051   1.75486  -0.72505
C    -2.83994   0.50138  -0.97341
C     0.34978  -1.17240  -1.10804
H     0.59280   1.58530  -3.07569
H    -0.89983   0.64714  -2.80632
H     0.48207  -0.10646  -3.64556
H     1.80842   1.89015  -1.27559
H     3.33626   0.33522   2.65093
H     4.14901   1.87431   2.66393
H     2.85879  -1.25749   1.31230
H     1.25834  -0.70543   1.80134
H     2.08144  -2.36484  -0.56417
H     0.22845  -3.52514   0.02096
H    -2.11819  -3.64405   0.93854
H    -1.49149  -3.00881   2.48493
H    -2.71370  -2.08170   1.57527
H    -1.98057  -1.80701  -2.41357
H    -1.46715  -3.21300  -1.46813
H    -2.96313  -2.34738  -1.02862
H    -0.46810   0.49254   1.45278
H    -1.46039   2.71791   1.89497
H    -3.36399   3.54071   0.49812
H    -4.24468   2.09856  -1.34178
H    -3.24204  -0.10328  -1.78619
H     0.36873  -1.82768  -1.99087
