23
Generated by autodE on: 2022-07-27. E = -459.841672 Ha
C     0.23705  -1.99576  -1.46919
C     0.34901  -1.10758  -0.27081
C    -0.23610   0.24227  -0.28329
C     0.46020   1.38350   0.17180
C    -0.12016   2.65189   0.11536
C    -1.40439   2.82204  -0.41086
C    -2.10101   1.70552  -0.88721
C    -1.52540   0.43667  -0.82801
N     1.04293  -1.59723   0.76389
C     1.10087  -0.90049   2.06251
N     1.69502  -2.74437   0.79931
H    -0.41104  -1.55236  -2.23374
H     1.22768  -2.16997  -1.93307
H    -0.16025  -2.99210  -1.19819
H     1.47821   1.28186   0.54946
H     0.44446   3.51688   0.47230
H    -1.85515   3.81605  -0.45763
H    -3.10486   1.82275  -1.30303
H    -2.08857  -0.42493  -1.19292
H     1.06837  -1.67792   2.83364
H     2.04705  -0.35078   2.14819
H     0.25645  -0.21654   2.18207
H     1.65729  -3.13754  -0.14465
