23
Generated by autodE on: 2022-06-18. E = -459.840846 Ha
C     1.29999  -2.02623  -0.62146
C     0.98453  -0.65202  -0.12855
C    -0.40114  -0.16555  -0.07688
C    -1.41952  -1.01908   0.40458
C    -2.75194  -0.60886   0.43547
C    -3.11183   0.66460  -0.02031
C    -2.12085   1.51662  -0.51773
C    -0.78688   1.10686  -0.55476
N     2.04266   0.10230   0.18317
C     1.90008   1.42058   0.83509
N     3.27128  -0.33609  -0.03270
H     1.94643  -2.56356   0.09534
H     0.38804  -2.60667  -0.80649
H     1.88178  -1.97608  -1.56040
H    -1.15518  -2.01148   0.77584
H    -3.51530  -1.28708   0.82497
H    -4.15567   0.98583   0.00396
H    -2.38916   2.50584  -0.89711
H    -0.03899   1.77323  -0.98671
H     0.90269   1.55183   1.26210
H     2.10780   2.21671   0.10800
H     2.64724   1.46055   1.63838
H     3.88886   0.37657   0.36515
