20
Generated by autodE on: 2022-06-18. E = -457.715334 Ha
C     3.09829   0.64914  -0.24831
N     1.83101  -0.01855  -0.00007
C     1.80751  -1.40482   0.19874
C     0.66597  -2.09928   0.32776
C    -0.69964  -1.46013   0.26903
C    -0.57570   0.03379   0.01770
C    -1.76552   0.89176  -0.10319
N    -2.96499   0.26871   0.01467
O    -1.70850   2.12218  -0.30381
C     0.64060   0.63679  -0.10161
H     2.94622   1.73566  -0.22792
H     3.51867   0.37092  -1.22995
H     3.83099   0.38448   0.52913
H     2.78973  -1.87866   0.24473
H     0.72948  -3.17796   0.48832
H    -1.31151  -1.94490  -0.51894
H    -1.25464  -1.65905   1.20908
H    -3.05256  -0.72552   0.18178
H    -3.80998   0.82409  -0.06221
H     0.69945   1.71070  -0.28560
