43
Generated by autodE on: 2022-06-18. E = -917.536443 Ha. Imaginary frequency = -463.6 cm-1
C     0.31248   1.16341  -2.45821
N     0.99217   0.38022  -1.44291
C     1.61751   0.95610  -0.39474
C     2.28817   0.24344   0.56625
C     2.84059   0.98891   1.69414
N     3.57667   0.27798   2.59122
O     2.66321   2.21727   1.86560
C     2.51714  -1.24654   0.39314
C     1.56184  -1.85968  -0.61989
N     0.18454  -2.78813   0.54835
N    -0.74201  -1.83242   0.68538
C    -0.61031  -1.13381   1.96237
C    -1.36591  -1.30779  -0.41626
C    -1.83681  -2.28439  -1.46821
C    -2.04781  -0.00163  -0.35869
C    -1.48545   1.12889   0.28088
C    -2.09568   2.38149   0.20734
C    -3.28842   2.55433  -0.49946
C    -3.86893   1.44828  -1.13038
C    -3.25900   0.19684  -1.06474
C     0.85221  -1.02086  -1.49185
H     0.40163   2.23123  -2.22351
H    -0.75408   0.89773  -2.50504
H     0.75663   0.98053  -3.45163
H     1.55028   2.04280  -0.32913
H     3.72285  -0.71922   2.50471
H     3.93699   0.75497   3.40975
H     3.56097  -1.43718   0.06807
H     2.41126  -1.77829   1.35335
H     1.86669  -2.82757  -1.02302
H    -0.09748  -3.37905  -0.23264
H    -0.43312  -1.89914   2.72648
H     0.24562  -0.43945   1.95555
H    -1.52716  -0.58538   2.20177
H    -1.99559  -1.77294  -2.42587
H    -1.12064  -3.09249  -1.65968
H    -2.79429  -2.75406  -1.17389
H    -0.54704   1.04920   0.82041
H    -1.62302   3.23361   0.70220
H    -3.76128   3.53740  -0.55825
H    -4.80686   1.56059  -1.68000
H    -3.73679  -0.64248  -1.56949
H     0.48692  -1.39281  -2.44808
