28
Generated by autodE on: 2022-10-26. E = -741.030725 Ha
C     2.18122  -3.41096   0.37393
N     1.20347  -2.35731   0.20115
C     1.57888  -1.05353   0.08945
O     2.77351  -0.72885   0.19128
C     0.49127  -0.08875  -0.14020
C     0.65016   1.29486   0.25752
O     1.53286   1.72685   0.99065
O    -0.26680   2.12796  -0.30199
C    -0.27677   3.47604   0.16724
N    -0.67201  -0.51753  -0.78456
C    -0.55958  -1.30337  -2.03210
C    -1.88749  -0.16019  -0.39218
C    -3.10118  -0.32163  -1.24586
C    -2.03539   0.41679   0.90124
N    -2.23612   0.84893   1.96425
H     1.68204  -4.38216   0.26383
H     2.66169  -3.37346   1.36690
H     2.97504  -3.33247  -0.38428
H     0.22235  -2.59438   0.29217
H     0.66811   3.98616  -0.07202
H    -0.44033   3.50937   1.25486
H    -1.10848   3.97070  -0.34923
H    -1.14250  -2.23001  -1.95809
H     0.49288  -1.52295  -2.22136
H    -0.95075  -0.69203  -2.85745
H    -2.97444   0.21541  -2.20079
H    -3.98245   0.07517  -0.72872
H    -3.27786  -1.38381  -1.48003
