28
Generated by autodE on: 2022-10-21. E = -741.039557 Ha
C    -1.95828  -3.24784  -0.33799
N    -1.66631  -1.85248  -0.09614
C    -0.43542  -1.34023  -0.32057
O     0.51865  -2.07316  -0.65728
C    -0.28833   0.11896  -0.17230
C    -1.37097   1.00816   0.14264
O    -2.55492   0.68493   0.29460
O    -0.97471   2.29306   0.31757
C    -2.00144   3.25085   0.58402
N     0.96751   0.65419  -0.49703
C     1.08585   1.68102  -1.55027
C     2.07538   0.11408  -0.02691
C     3.42281   0.38090  -0.60868
C     1.99094  -0.70791   1.13778
N     2.02315  -1.31716   2.12896
H    -1.20469  -3.89144   0.13982
H    -1.97472  -3.49571  -1.41414
H    -2.94294  -3.48464   0.08572
H    -2.41656  -1.18211   0.06976
H    -1.49412   4.21881   0.67693
H    -2.52745   3.01224   1.52026
H    -2.73049   3.28715  -0.23936
H     1.67998   2.52995  -1.18923
H     0.08654   2.01124  -1.83711
H     1.58244   1.23096  -2.42180
H     3.67204   1.45136  -0.52496
H     4.18726  -0.20219  -0.08272
H     3.43844   0.11705  -1.67851
