35
Generated by autodE on: 2022-06-19. E = -1027.992411 Ha
C     3.61013   1.05761  -0.77898
O     2.69407   0.08843  -0.23886
C     1.45796   0.49499   0.00286
O     1.06624   1.63004  -0.19092
C     0.52198  -0.65540   0.41952
C     1.15222  -1.52151   1.53200
C     0.63929  -2.91969   1.70701
O     2.00773  -1.03918   2.24725
C    -0.84168  -0.07664   0.89877
C    -0.75397   1.10750   1.84409
O    -0.10566   1.03310   2.87662
C    -1.52109   2.33039   1.52289
C    -2.06862   2.54739   0.31353
C    -1.93585   1.56781  -0.78472
O    -2.09933   1.89314  -1.95010
C    -1.65253   0.13258  -0.39781
C    -0.86772  -0.63299  -1.48657
C    -1.72366  -1.47631  -2.32804
N    -2.39775  -2.13733  -3.00173
N     0.11725  -1.43262  -0.75543
C     1.15321  -2.00741  -1.60524
H     3.23896   1.43232  -1.74308
H     4.56018   0.52897  -0.91312
H     3.73144   1.89445  -0.07725
H    -0.45762  -2.96112   1.64771
H     1.02820  -3.55483   0.89469
H     0.98815  -3.31427   2.66990
H    -1.33531  -0.86194   1.48848
H    -1.55920   3.08380   2.31398
H    -2.56260   3.49043   0.06548
H    -2.65060  -0.31291  -0.26110
H    -0.38659   0.09369  -2.17131
H     1.67007  -1.25236  -2.22595
H     1.90249  -2.52743  -0.99545
H     0.69203  -2.74592  -2.27792
