23
Generated by autodE on: 2022-07-27. E = -646.295820 Ha
C     1.94135   2.77861  -0.11435
O     1.13198   1.61010  -0.27540
C     0.85929   0.90151   0.84073
O     1.30095   1.24267   1.92998
C     0.07376  -0.30958   0.60400
C    -0.13954  -1.31872   1.63559
C     0.63922  -1.26702   2.92911
O    -0.96735  -2.22634   1.47037
N    -0.52624  -0.52633  -0.63714
C    -0.58094  -1.90048  -1.20098
C    -1.00762   0.45229  -1.37568
C    -1.45889   0.25129  -2.69917
N    -1.86377   0.14594  -3.78739
H     2.94002   2.51290   0.26248
H     1.46854   3.48696   0.58146
H     2.02242   3.22741  -1.11150
H     0.47300  -2.21689   3.45505
H     1.71244  -1.10252   2.76237
H     0.28259  -0.43840   3.55882
H    -0.29224  -1.83821  -2.25755
H    -1.59930  -2.29460  -1.11536
H     0.12108  -2.54212  -0.66792
H    -1.07186   1.45871  -0.96573
