12
Generated by autodE on: 2022-06-19. E = -381.636090 Ha
O    -0.20376   2.65825  -0.05770
C    -0.11018   1.43544  -0.03107
C     1.21390   0.76688  -0.01640
C     1.31669  -0.57333   0.01251
C     0.11018  -1.43544   0.03106
O     0.20376  -2.65825   0.05771
C    -1.21390  -0.76688   0.01640
C    -1.31668   0.57334  -0.01251
H     2.08803   1.42215  -0.03071
H     2.28057  -1.08752   0.02336
H    -2.08803  -1.42215   0.03072
H    -2.28057   1.08752  -0.02335
