24
Generated by autodE on: 2022-05-28. E = -518.132297 Ha
C     3.35450  -1.13197   0.11234
N     1.90988  -1.03305   0.16908
C     1.27586   0.14963  -0.00316
O     1.91932   1.19121  -0.21216
C    -0.20516   0.11829   0.08947
C    -1.00575   1.17352   0.34190
C    -0.68733   2.61131   0.56524
C    -2.42934   0.70035   0.39608
O    -2.38899  -0.70331   0.17493
C    -1.04347  -1.13672  -0.07932
C    -0.95868  -1.76723  -1.46513
H     3.83221  -0.56116   0.92556
H     3.74064  -0.74157  -0.84226
H     3.64225  -2.18629   0.20596
H     1.37416  -1.87082   0.36485
H    -1.07798   3.21517  -0.27274
H    -1.19523   2.97523   1.47398
H     0.39023   2.78770   0.64536
H    -2.88775   0.92480   1.37906
H    -3.05010   1.20465  -0.37109
H    -0.78021  -1.89926   0.68044
H     0.05063  -2.15881  -1.66043
H    -1.20290  -1.02175  -2.23816
H    -1.67118  -2.60303  -1.54168
