14
Generated by autodE on: 2022-05-28. E = -324.833501 Ha
C     2.86926   1.43770   0.08198
C     1.64575   0.65420   0.05320
C     0.61851   0.00491   0.03044
C    -0.54873  -0.86494   0.01187
O    -0.41800  -2.09590   0.07875
N    -1.75555  -0.26851  -0.08090
C    -2.04051   1.15020  -0.15905
H     3.19155   1.60910   1.12209
H     2.72135   2.41938  -0.39550
H     3.68388   0.91402  -0.44335
H    -2.54307  -0.91336  -0.08832
H    -2.58679   1.38998  -1.08473
H    -1.10306   1.71905  -0.15322
H    -2.65088   1.47719   0.69752
