10
Generated by autodE on: 2022-05-28. E = -193.129733 Ha
C     1.40605  -0.57455   0.03362
O     0.65851   0.49029   0.25626
C    -0.62726   0.63717   0.10556
C    -1.44411  -0.48786  -0.37609
H     2.46353  -0.43331   0.24363
H     0.95712  -1.49966  -0.32519
H    -0.98706   1.63261   0.36285
H    -2.50219  -0.20303  -0.44934
H    -1.35679  -1.36961   0.29569
H    -1.09937  -0.84233  -1.37214
