24
Generated by autodE on: 2022-05-28. E = -517.975098 Ha. Imaginary frequency = -142.0 cm-1
C     3.16227  -1.44102   0.51145
N     2.13735  -0.44307   0.73742
C     1.41672   0.06920  -0.29107
O     1.70080  -0.16951  -1.47845
C     0.34447   0.96493   0.08096
C    -0.53162   1.77848   0.35109
C    -1.31984   2.97509   0.64322
C    -2.63234   0.17069   0.59643
O    -1.81519  -0.85057   0.74033
C    -1.09269  -1.41717  -0.18992
C    -1.39062  -1.20124  -1.62122
H     3.68632  -1.63448   1.45586
H     3.89290  -1.08743  -0.23080
H     2.73905  -2.39168   0.14183
H     1.79243  -0.29789   1.68015
H    -2.15147   3.08740  -0.06904
H    -1.75237   2.93025   1.65437
H    -0.68711   3.87707   0.57847
H    -3.13983   0.46607   1.51269
H    -2.98293   0.45002  -0.39654
H    -0.48863  -2.24094   0.18933
H    -0.71465  -1.80341  -2.24183
H    -1.28879  -0.14248  -1.91805
H    -2.43803  -1.49176  -1.85194
