58
Generated by autodE on: 2022-06-03. E = -1230.306575 Ha
C   -11.50642   2.31303   5.12728
N   -10.86831   3.01470   4.03263
C   -11.40452   4.11527   3.47640
O   -12.42936   4.63943   3.92870
C   -10.60471   4.74269   2.32201
C   -11.39940   5.79924   1.50745
C   -11.99293   5.36312   0.16702
C   -13.12358   4.33364   0.22331
C   -12.83143   2.99655   0.91141
C   -11.65121   2.14077   0.39808
C   -11.86298   1.86550  -1.10697
C   -11.69360   0.80426   1.17520
C   -10.27803   2.76112   0.64007
C    -9.85698   3.76812   1.45365
C    -8.33793   3.88090   1.33118
C    -7.91095   5.25444   0.80007
C    -7.72740   3.52398   2.69429
C    -7.28149   4.50808   3.58507
C    -6.83851   4.16055   4.86725
C    -6.83454   2.82615   5.27611
C    -7.27029   1.83480   4.38917
C    -7.70916   2.18056   3.11052
N    -7.95038   2.86834   0.34450
C    -9.03271   2.26656  -0.00543
C    -8.90411   1.11381  -0.95978
O    -8.91810  -0.04904  -0.60953
O    -8.72721   1.52008  -2.21218
C    -8.57489   0.49570  -3.21105
H   -12.48378   1.89999   4.82704
H   -10.85617   1.48707   5.44184
H   -11.66974   2.98202   5.98628
H   -10.04473   2.59908   3.60869
H    -9.84062   5.31137   2.87799
H   -12.19118   6.18972   2.16459
H   -10.71242   6.63539   1.30954
H   -11.18685   5.00005  -0.49062
H   -12.38761   6.26898  -0.32362
H   -13.98488   4.78610   0.74541
H   -13.46480   4.14266  -0.80781
H   -12.73655   3.14290   1.99235
H   -13.72963   2.36716   0.79865
H   -11.60516   2.73735  -1.72602
H   -12.92005   1.61750  -1.28885
H   -11.27677   1.00652  -1.46117
H   -11.62716   0.98942   2.25795
H   -10.86503   0.14301   0.88699
H   -12.64013   0.27837   0.97184
H    -8.25114   6.06641   1.45549
H    -8.34950   5.41347  -0.19550
H    -6.81584   5.30570   0.71852
H    -7.28178   5.55784   3.29150
H    -6.49722   4.94396   5.54814
H    -6.49257   2.55714   6.27815
H    -7.26779   0.78563   4.69393
H    -8.04994   1.39801   2.43021
H    -7.69191  -0.12127  -2.99302
H    -9.47117  -0.14040  -3.24068
H    -8.44825   1.02197  -4.16362
