33
Generated by autodE on: 2022-06-03. E = -598.942374 Ha
C    -1.19325   3.77575   1.68826
N    -0.79081   2.62310   0.90707
C     0.46991   2.46345   0.47468
O     1.36655   3.28287   0.71193
C     0.77619   1.19486  -0.31741
C    -0.34613   0.30163  -0.59632
C    -0.91586  -0.76001  -0.74890
C    -1.15332  -2.20934  -0.76134
C    -1.92848  -2.63021   0.50116
C    -1.91545  -2.66774  -2.01433
C     0.28331  -2.82669  -0.76182
C     1.30909  -2.25147   0.23846
C     2.16616  -1.02479  -0.19172
C     1.84774   0.34937   0.43195
H    -2.26963   3.71255   1.88901
H    -0.65589   3.81655   2.64946
H    -0.98795   4.71288   1.14732
H    -1.47397   1.90553   0.68439
H     1.21320   1.54141  -1.27029
H    -2.07263  -3.72221   0.50383
H    -2.91930  -2.15126   0.52876
H    -1.38838  -2.34887   1.41731
H    -1.98834  -3.76672  -2.02949
H    -2.93664  -2.25615  -2.02620
H    -1.40077  -2.34355  -2.93172
H     0.15938  -3.90621  -0.57075
H     0.69330  -2.73667  -1.78178
H     2.01252  -3.07106   0.45474
H     0.81523  -2.03664   1.20118
H     2.17066  -0.93686  -1.29206
H     3.20811  -1.24809   0.08711
H     1.50700   0.20921   1.47183
H     2.76246   0.95939   0.47687
