35
Generated by autodE on: 2022-06-04. E = -6070.935528 Ha
C    -2.96920  -0.10594   2.08627
C    -2.31570  -0.91427   0.97360
F    -3.33823  -1.25348   0.03164
C    -1.79717  -2.26096   1.48268
C    -0.67447  -2.91099   0.67269
C     0.68339  -2.69738   1.34030
C     0.99712  -1.26571   1.78429
C     1.12494  -0.19979   0.70290
Br    2.44077  -0.84375  -0.66180
Br    1.92578   1.41078   1.61399
C    -0.09997   0.27597  -0.00280
C    -1.40907  -0.02197   0.14788
C    -2.09525   0.79555  -0.98828
C    -3.50294   1.15009  -0.93674
N    -4.60870   1.49330  -0.95154
O    -1.27114   1.94753  -1.09410
C    -0.05296   1.25691  -1.22675
C     1.06483   2.19411  -1.55877
O    -0.34016   0.37532  -2.39939
C    -1.63525   0.04025  -2.28204
O    -2.25353  -0.68095  -3.01008
H    -3.46375   0.79538   1.69905
H    -2.20284   0.19904   2.81295
H    -3.71654  -0.73163   2.59652
H    -1.49501  -2.15389   2.53426
H    -2.69377  -2.89684   1.49536
H    -0.85259  -3.99386   0.59495
H    -0.67799  -2.53237  -0.36287
H     0.71241  -3.30142   2.26232
H     1.49340  -3.07449   0.69944
H     0.23943  -0.89996   2.49511
H     1.94764  -1.28063   2.33373
H     0.81870   2.67912  -2.51346
H     1.14229   2.95793  -0.77631
H     2.02207   1.67316  -1.65372
