23
Generated by autodE on: 2022-06-04. E = -5597.937039 Ha
C    -1.09110   0.21171  -4.00924
C    -0.95543   1.17092  -2.83704
F    -1.96789   2.14009  -2.96935
C    -1.07090   0.49416  -1.54281
C    -0.68142  -0.02832  -0.51940
C     0.26402  -0.39156   0.49650
Br   -0.03337  -2.24871   1.15188
Br    0.04659   0.84310   2.05466
C     1.68474  -0.26802  -0.08366
C     1.98135   1.04227  -0.84340
C     1.63285   1.11523  -2.35694
C     0.39356   1.92368  -2.79523
H    -2.07069  -0.28670  -3.98317
H    -0.99711   0.77774  -4.94787
H    -0.30383  -0.55440  -3.97515
H     2.39440  -0.40004   0.74587
H     1.82172  -1.12289  -0.76494
H     1.53341   1.89474  -0.30684
H     3.06922   1.18236  -0.75612
H     1.58729   0.09721  -2.77893
H     2.49028   1.59398  -2.85309
H     0.55544   2.32584  -3.80802
H     0.25370   2.78477  -2.12234
