12
Generated by autodE on: 2022-06-04. E = -472.928814 Ha
C    -2.96933   0.37535  -0.04254
C    -1.53662   0.06228   0.00743
O    -1.05823  -1.10096   0.28266
C     0.45130  -1.01879   0.24054
O     1.09899  -2.00584   0.46980
C     0.63203   0.32563  -0.08681
C     1.79373   1.06957  -0.28768
N     2.78067   1.67371  -0.45202
O    -0.62327   0.94801  -0.22050
H    -3.41488   0.16558   0.94305
H    -3.11424   1.42739  -0.31234
H    -3.45542  -0.28426  -0.77854
