35
Generated by autodE on: 2022-06-04. E = -6070.859396 Ha. Imaginary frequency = -337.0 cm-1
C    -3.14049  -0.00567   2.16828
C    -2.40130  -0.83474   1.13042
F    -3.31648  -1.16127   0.10561
C    -1.87481  -2.16225   1.71238
C    -0.83421  -2.89273   0.84636
C     0.61463  -2.82196   1.35971
C     1.22066  -1.47077   1.77184
C     1.26761  -0.35869   0.71717
Br    2.24517  -1.01652  -0.89860
Br    2.30970   1.16850   1.49046
C    -0.05791   0.11369   0.33724
C    -1.26730  -0.11044   0.51551
C    -2.29533   1.26601  -1.14698
C    -3.60642   1.65622  -0.82243
N    -4.69838   1.96536  -0.55963
O    -1.26618   2.17403  -0.99314
C    -0.18734   1.60984  -1.49056
C     1.05991   2.37755  -1.64844
O    -0.51209   0.61728  -2.31667
C    -1.88811   0.30226  -2.13400
O    -2.40945  -0.61168  -2.71540
H    -3.57547   0.89584   1.71876
H    -2.45011   0.29489   2.96864
H    -3.94748  -0.61244   2.60559
H    -2.77177  -2.78270   1.86089
H    -1.46987  -1.95473   2.71429
H    -0.89697  -2.53283  -0.19297
H    -1.09708  -3.96052   0.79885
H     0.68551  -3.44598   2.26650
H     1.27309  -3.29635   0.61558
H     0.66522  -1.04723   2.62372
H     2.24798  -1.65040   2.12056
H     1.92360   1.70516  -1.69636
H     1.16734   3.08344  -0.81759
H     0.99655   2.93546  -2.59893
