68
Generated by autodE on: 2022-06-12. E = -1718.269934 Ha
C   -10.87952  -4.55289   9.77907
N   -10.39568  -3.28328  10.28701
C    -9.40611  -2.62813   9.66985
O    -8.73692  -3.11889   8.75856
C    -9.01213  -1.22057  10.25029
C    -7.93773  -1.72189  11.25546
O    -8.20253  -2.40474  12.22151
O    -6.70002  -1.41484  10.89213
C    -5.64441  -1.87071  11.75444
C    -8.39002  -0.33284   9.13357
C    -9.33056   0.59548   8.36626
C   -10.37717  -0.04343   7.45056
C   -11.40781  -1.00453   8.05646
C   -12.22609  -0.51064   9.29417
C   -12.83482   0.85410   8.84671
C   -13.94070   0.92044   7.83014
O   -12.33128   1.88313   9.26042
C   -13.24188  -1.65428   9.61723
C   -14.40152  -1.97139   8.71639
O   -13.03272  -2.35760  10.59221
C   -11.42047  -0.26311  10.55208
C   -10.14866  -0.50728  10.97108
N   -10.01594  -0.02313  12.30012
C    -8.82448   0.32864  12.99114
C    -7.80071   1.06356  12.38026
C    -6.64256   1.37796  13.09685
C    -6.51972   0.99631  14.43488
C    -7.56039   0.29425  15.05680
C    -8.70499  -0.04518  14.33729
N   -11.12205   0.87275  12.56537
C   -10.79246   2.26727  12.19660
N   -12.08798   0.36172  11.66408
C   -13.41189   0.57297  11.86340
O   -14.29189   0.26681  11.06205
O   -13.65807   1.19519  13.02788
C   -15.03517   1.47116  13.31033
H   -11.35039  -4.43764   8.78750
H   -11.62411  -4.95345  10.47739
H   -10.05279  -5.27116   9.68442
H   -11.02660  -2.75432  10.88581
H    -4.71413  -1.50281  11.30780
H    -5.77686  -1.45432  12.76244
H    -5.64104  -2.96871  11.80242
H    -7.86346  -1.00682   8.44481
H    -7.62275   0.29459   9.60026
H    -9.81915   1.28758   9.06640
H    -8.68868   1.22452   7.72766
H   -10.91323   0.77156   6.93684
H    -9.86055  -0.61028   6.65778
H   -10.95037  -1.96707   8.29379
H   -12.13493  -1.23843   7.26775
H   -13.96221   1.93743   7.41780
H   -13.81948   0.18952   7.02143
H   -14.90230   0.72464   8.32564
H   -14.71887  -3.00257   8.91920
H   -15.23560  -1.29906   8.96446
H   -14.17235  -1.85074   7.65149
H    -7.91657   1.39324  11.34841
H    -5.84135   1.93642  12.60782
H    -5.61679   1.24745  14.99593
H    -7.47074  -0.00387  16.10386
H    -9.51066  -0.61591  14.80166
H   -10.37308   2.35294  11.18194
H   -11.72039   2.84767  12.26594
H   -10.08078   2.66449  12.92999
H   -15.61778   0.53992  13.36074
H   -15.46503   2.13087  12.54277
H   -15.04371   1.97291  14.28509
