43
Generated by autodE on: 2022-06-12. E = -1053.685143 Ha
C     2.62596  -3.22297   0.35856
N     1.85371  -2.02869   0.07036
C     2.43477  -0.90529  -0.36165
O     3.64704  -0.79485  -0.56537
C     1.52216   0.32803  -0.59365
C     1.91830   0.87057  -1.97471
O     2.43215   1.94677  -2.17706
O     1.62521  -0.01137  -2.92921
C     1.96896   0.34886  -4.27737
C     0.09768   0.02337  -0.51263
C    -0.99459  -0.09077  -0.00067
C    -2.01589   0.02148   1.03452
C    -3.01561   1.15968   0.66690
C    -3.82724   1.75227   1.77913
O    -3.12126   1.51734  -0.48940
C    -2.89466  -1.25102   1.18661
C    -3.03742  -2.12160  -0.02308
O    -3.44302  -1.48154   2.24601
C    -1.23795   0.29870   2.35787
C    -0.18570   1.42578   2.29043
C     1.27768   1.04727   1.92263
C     1.80671   1.38487   0.51543
H     1.93905  -4.03019   0.63936
H     3.20381  -3.53642  -0.52419
H     3.33261  -3.05178   1.18609
H     0.85273  -2.02216   0.24455
H     3.05353   0.50643  -4.36364
H     1.65528  -0.49401  -4.90339
H     1.43796   1.26428  -4.57465
H    -3.18187   2.42217   2.37122
H    -4.20014   0.97458   2.46033
H    -4.65675   2.33422   1.35755
H    -2.07016  -2.60738  -0.23334
H    -3.80827  -2.88436   0.14471
H    -3.27988  -1.50461  -0.90272
H    -1.97418   0.51763   3.14140
H    -0.74946  -0.64388   2.65027
H    -0.15442   1.86446   3.29939
H    -0.53885   2.23697   1.63106
H     1.93163   1.59593   2.61749
H     1.45072  -0.01890   2.14465
H     1.38432   2.34213   0.17592
H     2.89866   1.51254   0.55135
