25
Generated by autodE on: 2022-07-27. E = -664.522365 Ha
C    -4.83565  -0.32570   0.18529
O    -3.77317   0.61752   0.03210
C    -2.54576   0.09982  -0.19859
O    -2.34409  -1.10264  -0.26035
N    -1.68334   1.14827  -0.43924
N    -0.39277   0.92920  -0.34853
C     0.39735   1.98884  -1.03058
N     0.11726  -0.01985   0.32278
C     1.49871  -0.26420   0.28733
C     2.23130  -0.40457  -0.90648
C     3.58578  -0.73466  -0.85349
C     4.22331  -0.92542   0.37682
C     3.49046  -0.80628   1.56321
C     2.13208  -0.49603   1.52195
H    -4.63961  -1.00617   1.02764
H    -4.96969  -0.91891  -0.73212
H    -5.73906   0.26392   0.38362
H     0.51907   1.71637  -2.08589
H     1.37215   2.09549  -0.54594
H    -0.18755   2.90916  -0.95191
H     1.73526  -0.28342  -1.87002
H     4.14564  -0.84831  -1.78459
H     5.28508  -1.17892   0.41074
H     3.97828  -0.96443   2.52771
H     1.54585  -0.41624   2.43917
