25
Generated by autodE on: 2022-06-12. E = -664.523553 Ha
C     2.21722  -0.99792  -0.98926
O     1.71068  -0.20439   0.08959
C     1.36541   1.06436  -0.20599
O     1.63523   1.59587  -1.27157
N     0.79357   1.74475   0.84055
N     0.02993   1.11797   1.70836
C     0.02819   1.75902   3.03903
N    -0.74271   0.11401   1.59107
C    -1.00263  -0.47100   0.33970
C    -1.05509  -1.87386   0.29503
C    -1.37710  -2.52394  -0.89534
C    -1.69014  -1.78303  -2.04005
C    -1.68122  -0.38502  -1.98367
C    -1.33039   0.27717  -0.80717
H     3.16836  -0.58904  -1.35984
H     1.48852  -1.03704  -1.81222
H     2.37357  -2.00232  -0.57876
H     1.05185   1.72413   3.43241
H    -0.27752   2.80450   2.90717
H    -0.67160   1.22273   3.68541
H    -0.82117  -2.43875   1.19897
H    -1.39330  -3.61567  -0.92649
H    -1.95034  -2.29255  -2.97031
H    -1.94593   0.20041  -2.86706
H    -1.32671   1.36697  -0.77772
