23
Generated by autodE on: 2022-06-23. E = -609.135897 Ha
C     4.61351   0.28717  -0.87871
N     3.82013  -0.02572   0.29240
C     2.45009  -0.08775   0.20090
O     1.84511   0.38451  -0.79366
N     1.87899  -0.68603   1.28337
O     0.47435  -0.79352   1.02602
C    -0.14927   0.25887   0.65639
C    -1.49501   0.16523   0.16992
C    -2.11378  -1.08162  -0.07577
C    -3.42462  -1.11718  -0.53333
C    -4.12351   0.07910  -0.75742
C    -3.51385   1.31714  -0.52356
C    -2.20184   1.36470  -0.06132
H     4.62013  -0.52257  -1.63189
H     4.22528   1.19287  -1.36452
H     5.65087   0.47779  -0.57116
H     4.23645  -0.65776   0.96924
H     0.30919   1.23687   0.82674
H    -1.55487  -2.00342   0.09231
H    -3.91037  -2.07600  -0.72474
H    -5.15260   0.04283  -1.12204
H    -4.06451   2.24234  -0.70348
H    -1.71043   2.32180   0.12733
