49
Generated by autodE on: 2022-06-23. E = -1298.601804 Ha. Imaginary frequency = -273.7 cm-1
C    -1.75565   3.45230  -2.71608
N    -0.98684   2.22821  -2.72515
C    -0.06000   1.92398  -1.78750
O     0.26126   2.69193  -0.86682
N     0.52600   0.67613  -2.04269
O     1.61988   0.44633  -1.22681
C     1.38957   0.28842   0.05300
C     2.47583  -0.11224   0.90745
C     2.25500  -0.12330   2.30050
C     3.26432  -0.55077   3.16012
C     4.49329  -0.96997   2.63936
C     4.71810  -0.96119   1.25511
C     3.71740  -0.53740   0.38770
C     0.13482  -1.65546  -0.38261
C     1.23613  -2.65090  -0.61308
C    -0.42360  -1.58289   0.96775
O     0.03120  -2.22920   1.90988
C    -1.55463  -0.62411   1.22665
O    -1.73147  -0.42627   2.53273
C    -2.58055   0.60996   3.04217
C    -2.28429  -0.12814   0.18435
O    -3.42284   0.59451   0.38062
C    -3.41346   1.94910  -0.08712
C    -1.91055  -0.45330  -1.20323
O    -2.66428  -0.15736  -2.12881
C    -0.60817  -1.15039  -1.47117
C    -0.46351  -1.76418  -2.83113
H    -2.79217   3.24831  -3.01910
H    -1.75771   3.88247  -1.70708
H    -1.33742   4.20504  -3.40709
H    -1.17217   1.53548  -3.44247
H     0.50761   0.76966   0.47475
H     1.28854   0.19676   2.69355
H     3.09360  -0.55950   4.23843
H     5.28371  -1.30538   3.31469
H     5.68081  -1.28811   0.85683
H     3.88463  -0.52461  -0.68994
H     0.83374  -3.60160  -1.00235
H     1.95877  -2.27543  -1.35248
H     1.76751  -2.86630   0.32146
H    -2.37567   0.64682   4.11959
H    -2.32941   1.57804   2.58527
H    -3.63837   0.37588   2.87023
H    -4.22127   2.46977   0.44493
H    -2.45247   2.43367   0.14409
H    -3.60113   1.99129  -1.16802
H    -0.98895  -1.17295  -3.58941
H     0.59065  -1.86146  -3.11599
H    -0.90330  -2.77733  -2.81542
