11
Generated by autodE on: 2022-05-31. E = -430.799850 Ha
C    -2.29652   1.04238  -0.14438
C    -1.04732   0.42680   0.37688
O    -0.20075   0.97788   1.05772
N    -0.96704  -0.97432   0.12065
O     0.18030  -1.56561   0.19813
N     1.38812  -1.08030  -0.02805
C     1.48792   0.12010  -0.58423
N     1.75372   1.10488  -1.16118
H    -3.14688   0.35224  -0.05837
H    -2.49454   1.98458   0.38169
H    -2.14041   1.25241  -1.21738
