41
Generated by autodE on: 2022-06-21. E = -1156.998392 Ha
C     3.89487   0.45559   1.96964
O     3.07350   0.38921   0.79329
C     1.76434   0.52018   0.96567
O     1.24216   0.82183   2.01837
C     0.97363   0.43178  -0.36595
C     1.99067   0.40114  -1.53048
C     2.39142   1.70978  -2.13652
O     2.43741  -0.66861  -1.89663
N     0.05555   1.56974  -0.45078
C    -1.21500   1.26428   0.19313
C    -2.34354   1.57417  -0.71489
N    -3.21641   1.83031  -1.43271
C    -1.44016   2.01804   1.44118
N    -1.62315   2.62169   2.41406
C    -1.13665  -0.30806   0.52066
N    -2.35257  -1.04155   0.41669
C    -3.35755  -0.80238   1.43937
C    -2.72235  -1.54965  -0.81861
C    -1.91436  -1.56917  -1.89595
C    -0.53933  -0.96405  -1.87145
C    -0.00048  -0.78076  -0.42688
C     0.63069  -2.05710   0.14977
N     0.13633  -3.21997  -0.29205
O     1.51858  -1.99302   1.00517
H     4.92872   0.35514   1.62115
H     3.63738  -0.37030   2.64821
H     3.75309   1.41674   2.48308
H     2.63902   2.44084  -1.35095
H     3.24604   1.56436  -2.80923
H     1.53948   2.11914  -2.70259
H     0.45817   2.45746  -0.15856
H    -0.77970  -0.36205   1.55500
H    -2.88471  -0.81744   2.43250
H    -4.11640  -1.59613   1.40236
H    -3.86947   0.17020   1.31509
H    -3.72469  -1.98243  -0.84680
H    -2.27384  -2.01921  -2.82240
H     0.16833  -1.58397  -2.43766
H    -0.54279   0.01482  -2.38007
H     0.48745  -4.08297   0.11293
H    -0.65517  -3.25554  -0.92959
