21
Generated by autodE on: 2022-06-21. E = -699.254133 Ha
C     2.55456  -1.98243   0.15942
O     1.48474  -1.05465   0.40568
C     1.50669   0.09424  -0.26639
O     2.42337   0.46013  -0.97358
C     0.29245   0.89595  -0.00044
N    -0.91473   0.38022   0.19857
C    -1.49403  -0.83023   0.09212
C    -2.86412  -0.93840   0.44685
N    -3.98743  -1.04847   0.73675
C    -0.86714  -1.98636  -0.43604
N    -0.45187  -2.97080  -0.90067
C     0.29921   2.37685   0.14570
C     1.57397   3.13578  -0.04019
O    -0.76385   2.92551   0.43050
H     3.51289  -1.54327   0.46951
H     2.59158  -2.24181  -0.90771
H     2.32603  -2.86921   0.76012
H    -1.56294   1.15404   0.45797
H     1.40429   4.19108   0.20633
H     1.91295   3.04055  -1.08307
H     2.37165   2.71723   0.59253
