41
Generated by autodE on: 2022-06-21. E = -1156.947085 Ha. Imaginary frequency = -405.2 cm-1
C     3.83683  -0.54372   1.21469
O     2.76071  -0.42248   0.27265
C     1.92162   0.58731   0.44785
O     2.07702   1.46385   1.27108
C     0.75203   0.56720  -0.52505
C     1.22737   0.55972  -1.98303
C     0.66817   1.58829  -2.93233
O     2.06163  -0.24735  -2.34811
N    -0.17494   1.56675  -0.27297
C    -1.02477   1.54836   0.85575
C    -2.29891   2.13366   0.67048
N    -3.35899   2.59370   0.49254
C    -0.58212   1.52485   2.19953
N    -0.34946   1.49673   3.34525
C    -1.49355  -0.84520   0.29243
N    -2.48516  -0.72785  -0.60256
C    -3.87965  -0.60507  -0.17980
C    -2.21372  -0.76416  -1.98669
C    -1.09729  -1.34688  -2.44284
C    -0.15825  -1.98803  -1.46125
C    -0.15366  -1.20813  -0.14646
C     0.60692  -1.84594   1.00050
N     1.28661  -2.97425   0.72983
O     0.56323  -1.36552   2.13852
H     4.49282   0.33653   1.16589
H     3.42974  -0.64930   2.23041
H     4.38530  -1.44733   0.92654
H    -0.42688   1.51845  -3.01187
H     1.10831   1.41830  -3.92235
H     0.91986   2.60191  -2.58191
H    -0.70120   1.84031  -1.09779
H    -1.77466  -0.93044   1.33895
H    -3.92091  -0.38082   0.89163
H    -4.41289  -1.54872  -0.37669
H    -4.36762   0.20419  -0.73705
H    -2.97928  -0.31302  -2.61941
H    -0.88970  -1.37404  -3.51315
H    -0.49281  -3.02528  -1.26250
H     0.85573  -2.05942  -1.87252
H     1.86346  -3.36762   1.46723
H     1.41635  -3.32153  -0.21220
