60
Generated by autodE on: 2022-07-03. E = -6610.977884 Ha
C     3.46376  -2.76313 -17.66625
O     4.04588  -4.00423 -17.24814
C     4.40716  -4.85447 -18.20508
O     4.21272  -4.66688 -19.38644
C     4.91990  -6.18194 -17.60826
C     5.68920  -6.99775 -18.67536
O     5.49406  -8.18519 -18.83709
O     6.54122  -6.28346 -19.38033
C     7.34578  -6.97686 -20.34370
N     3.69415  -6.90128 -17.26506
C     3.69284  -7.23975 -15.83630
C     3.73519  -8.74753 -15.63013
C     2.56116  -9.44602 -15.32746
C     2.58349 -10.83399 -15.16418
C     3.78317 -11.53688 -15.30815
C     4.95801 -10.84582 -15.62611
C     4.93339  -9.46031 -15.79018
C     4.90973  -6.53962 -15.26880
C     5.66731  -6.00734 -16.26089
C     7.05009  -5.40115 -16.19191
Br    7.27959  -3.90437 -17.50054
Br    8.32768  -6.88192 -16.76762
C     7.63073  -4.88627 -14.87717
C     6.90966  -3.71078 -14.21598
C     5.41618  -3.88677 -13.96085
C     5.00271  -5.10685 -13.13904
C     5.10793  -6.52518 -13.75141
F     6.40582  -7.03579 -13.50191
C     4.15977  -7.47472 -13.00696
C     4.63032  -8.71297 -12.54782
C     3.77560  -9.60168 -11.89236
C     2.43520  -9.26675 -11.68310
C     1.95935  -8.03211 -12.13123
C     2.81581  -7.14249 -12.78408
H     4.16846  -2.20686 -18.30138
H     3.25820  -2.20219 -16.74750
H     2.53190  -2.94280 -18.22130
H     7.93602  -7.76241 -19.85119
H     6.70845  -7.42511 -21.11897
H     8.00770  -6.22091 -20.78036
H     3.65086  -7.74869 -17.82720
H     2.78024  -6.85645 -15.35559
H     1.62800  -8.89362 -15.19743
H     1.66235 -11.36664 -14.91592
H     3.80400 -12.62076 -15.17195
H     5.89944 -11.38873 -15.73949
H     5.85657  -8.92566 -16.02117
H     8.66758  -4.59046 -15.08660
H     7.68305  -5.73236 -14.18928
H     7.06105  -2.80185 -14.81860
H     7.42452  -3.53777 -13.25595
H     5.06527  -3.00037 -13.40799
H     4.86461  -3.87825 -14.91223
H     3.95349  -4.96084 -12.85680
H     5.56862  -5.15735 -12.19388
H     5.66884  -8.99038 -12.71813
H     4.16086 -10.56486 -11.54992
H     1.76510  -9.96431 -11.17534
H     0.91369  -7.75649 -11.97646
H     2.41532  -6.19126 -13.13737
