30
Generated by autodE on: 2022-07-03. E = -821.142316 Ha
C    -4.11221   1.93317   1.11271
O    -3.33963   0.79748   0.71079
C    -2.02254   0.99620   0.55790
O    -1.50493   2.10162   0.75379
C    -1.24034  -0.15446   0.15028
N     0.10362   0.18688   0.02716
C     1.17325  -0.48112  -0.30797
C     2.49579   0.11095  -0.35987
C     3.56375  -0.71631  -0.76548
C     4.86176  -0.21311  -0.84080
C     5.11485   1.12228  -0.51177
C     4.06161   1.95313  -0.10548
C     2.76357   1.45682  -0.02836
C    -1.65823  -1.50604  -0.11679
O    -0.89343  -2.41088  -0.46056
O    -2.98080  -1.73406   0.03734
C    -3.42545  -3.06751  -0.21992
H    -5.14819   1.58051   1.18363
H    -4.03980   2.74054   0.36903
H    -3.77603   2.31097   2.08964
H     0.21368   1.18469   0.26086
H     1.04520  -1.53195  -0.55835
H     3.36067  -1.75874  -1.02160
H     5.67932  -0.86451  -1.15721
H     6.13122   1.51814  -0.57001
H     4.25706   2.99595   0.15369
H     1.96004   2.12317   0.29424
H    -3.21934  -3.35972  -1.26065
H    -2.93781  -3.78517   0.45685
H    -4.50774  -3.06272  -0.04135
