60
Generated by autodE on: 2022-07-03. E = -6610.900005 Ha. Imaginary frequency = -290.6 cm-1
C     2.74850  -3.52990 -18.64217
O     3.77569  -4.51569 -18.77620
C     3.74518  -5.52854 -17.90777
O     2.84041  -5.65127 -17.09119
C     4.86186  -6.48446 -18.03972
C     5.82988  -6.53726 -19.16494
O     6.47352  -7.55366 -19.39937
O     5.95104  -5.42713 -19.88104
C     6.92869  -5.44029 -20.92569
N     4.71138  -7.73163 -17.49404
C     4.19724  -8.00512 -16.28407
C     4.29009  -9.37466 -15.75766
C     3.22743  -9.87540 -14.98726
C     3.28609 -11.16332 -14.45274
C     4.40835 -11.96507 -14.68056
C     5.47387 -11.47249 -15.44544
C     5.41885 -10.18553 -15.97664
C     5.43754  -6.64186 -15.16049
C     5.90836  -5.76309 -15.92657
C     6.79676  -4.61546 -16.04746
Br    5.75744  -3.00115 -16.59779
Br    8.17227  -4.98604 -17.47739
C     7.62530  -4.27472 -14.79840
C     6.89314  -3.74620 -13.56189
C     5.76558  -4.60664 -12.98436
C     6.12773  -6.09128 -12.80939
C     5.33382  -7.04456 -13.72134
F     5.95853  -8.30288 -13.58214
C     3.89649  -7.18290 -13.23662
C     3.60173  -8.12778 -12.24448
C     2.29972  -8.25940 -11.75930
C     1.27734  -7.44409 -12.25670
C     1.56942  -6.49272 -13.23760
C     2.87380  -6.36084 -13.72445
H     2.97137  -2.76062 -19.39074
H     2.75929  -3.09145 -17.63371
H     1.75876  -3.96956 -18.83382
H     7.92940  -5.64352 -20.51730
H     6.68296  -6.20366 -21.67800
H     6.90094  -4.44094 -21.37501
H     5.39998  -8.38760 -17.87608
H     3.32897  -7.42154 -15.99506
H     2.35531  -9.24467 -14.80600
H     2.45418 -11.53987 -13.85334
H     4.45780 -12.97182 -14.25910
H     6.35691 -12.09244 -15.61628
H     6.27309  -9.79844 -16.53821
H     8.37682  -3.52971 -15.09479
H     8.17750  -5.19419 -14.55052
H     6.50202  -2.73912 -13.77374
H     7.67586  -3.61732 -12.79532
H     5.47808  -4.17918 -12.01204
H     4.87388  -4.50592 -13.61954
H     5.95078  -6.42471 -11.77672
H     7.19239  -6.26957 -13.02201
H     4.39274  -8.77734 -11.86864
H     2.08095  -9.00807 -10.99424
H     0.25695  -7.55113 -11.88128
H     0.77888  -5.85170 -13.63463
H     3.08351  -5.63143 -14.50762
