27
Generated by autodE on: 2022-05-28. E = -3607.688112 Ha
C     3.67215   0.79789   1.19005
C     2.26151   0.30194   1.35750
O     1.86015  -0.26640   2.36426
N     1.40856   0.52185   0.29258
N     1.82544   1.23305  -0.81323
C     0.82525   1.43370  -1.58458
C    -0.46679   0.84665  -1.09510
Cl   -1.11724  -0.19356  -2.42404
C    -1.50174   1.87294  -0.57310
C    -2.78477   1.13733  -0.14243
C    -2.34361   0.36948   1.13721
C    -0.87006   0.78127   1.32173
C    -0.89002   2.23390   0.79621
C     0.00701   0.12364   0.23785
Br   -0.09529  -1.85785   0.21613
H     3.68600   1.88951   1.05573
H     4.23805   0.52671   2.08958
H     4.14156   0.35189   0.30112
H     0.93196   1.97496  -2.52604
H    -1.65468   2.69612  -1.28201
H    -3.56299   1.87988   0.08367
H    -3.17080   0.47683  -0.92856
H    -2.91818   0.69223   2.01662
H    -2.46208  -0.71762   1.04498
H    -0.46730   0.62003   2.32564
H     0.09837   2.71078   0.74482
H    -1.55864   2.87526   1.38734
