27
Generated by autodE on: 2022-05-28. E = -3607.573391 Ha. Imaginary frequency = -404.0 cm-1
C     3.54627  -0.00256   0.22034
C     2.58423   0.40477   1.30828
O     2.60378  -0.09138   2.42994
N     1.61267   1.35128   1.01414
N     1.61102   1.83912  -0.17087
C     0.96529   1.97025  -1.16955
C    -0.72453   0.60886  -1.01625
Cl   -0.44202  -0.19813  -2.55143
C    -1.88874   1.59261  -0.85867
C    -3.17373   0.72223  -0.73052
C    -2.99883   0.03854   0.65575
C    -1.61432   0.58068   1.14793
C    -1.67367   2.02365   0.60545
C    -0.60454  -0.03250   0.20524
Br    0.05556  -1.77901   0.44537
H     4.12774   0.86601  -0.12721
H     4.22461  -0.77479   0.60267
H     2.99279  -0.39301  -0.64912
H     0.92537   2.53916  -2.09642
H    -1.92689   2.38053  -1.62044
H    -4.06362   1.36770  -0.75276
H    -3.25588   0.00406  -1.55839
H    -3.78074   0.35186   1.36298
H    -3.01102  -1.05902   0.60285
H    -1.41084   0.44268   2.21555
H    -0.75167   2.59306   0.77665
H    -2.53238   2.58162   1.00554
