44
Generated by autodE on: 2022-06-19. E = -1063.360655 Ha
C    -2.00863   2.82566  -1.43193
N    -1.97528   1.61027  -0.64222
C    -1.18524   0.58413  -0.96859
O    -0.50889   0.55354  -2.00271
C    -1.11149  -0.58694   0.04024
C    -2.45906  -0.78735   0.75357
O    -2.90162   0.07676   1.52993
N    -3.08682  -1.92255   0.44854
C    -4.36152  -2.32371   1.00169
N    -0.69254  -1.79664  -0.66236
N     0.30984  -2.40067   0.18559
C     0.99286  -3.46825  -0.51317
C     1.14213  -1.28696   0.66285
C     2.11181  -0.70456  -0.38204
C     2.43589   0.74131  -0.11498
C     3.58744   1.41235  -0.73129
N     4.35080   0.66112  -1.56718
O     3.87983   2.60859  -0.52142
C     1.61109   1.49474   0.66752
N     0.47376   1.05799   1.26211
C    -0.20418   1.88289   2.25011
C     0.04187  -0.31256   1.11333
H    -2.75162   3.50776  -1.00131
H    -1.02599   3.32500  -1.43563
H    -2.28459   2.61013  -2.47523
H    -2.46922   1.55811   0.24787
H    -2.57455  -2.52437  -0.19738
H    -4.24790  -3.17789   1.68847
H    -5.05344  -2.61604   0.19786
H    -4.79363  -1.48149   1.55572
H    -0.25548  -1.48553  -1.54095
H     1.78492  -3.87167   0.13369
H     1.45407  -3.14791  -1.46920
H     0.28025  -4.27604  -0.73700
H     1.71224  -1.62027   1.54172
H     1.67938  -0.80755  -1.39220
H     3.02520  -1.31944  -0.37433
H     4.12001  -0.29445  -1.80653
H     5.13731   1.10185  -2.03083
H     1.85554   2.54297   0.85077
H     0.14998   1.66146   3.27355
H    -1.28421   1.69622   2.21588
H    -0.01708   2.94375   2.03626
H    -0.33733  -0.65273   2.08547
