20
Generated by autodE on: 2022-06-19. E = -457.715317 Ha
C     3.12756  -0.50544   0.24735
N     1.82727   0.10192   0.01632
C     1.74422   1.47695  -0.23697
C     0.57371   2.11539  -0.39215
C    -0.76282   1.42041  -0.30615
C    -0.57425  -0.05937  -0.01285
C    -1.72533  -0.96554   0.12854
N    -2.95109  -0.40163  -0.01589
O    -1.61522  -2.18557   0.36814
C     0.66751  -0.60384   0.12835
H     3.00785  -1.59121   0.34857
H     3.80644  -0.30515  -0.59639
H     3.59506  -0.11619   1.16738
H     2.70508   1.99065  -0.30190
H     0.59017   3.18911  -0.59274
H    -1.39112   1.90203   0.47100
H    -1.32988   1.56823  -1.24827
H    -3.77011  -0.99312   0.07159
H    -3.08289   0.58053  -0.22049
H     0.77420  -1.66878   0.34104
