24
Generated by autodE on: 2022-07-27. E = -605.605486 Ha
C     2.92785  -2.10395  -0.83951
N     1.58329  -1.79901  -0.40627
N     1.30720  -0.55662  -0.39713
C     0.16828   0.08091  -0.05858
C     0.31984   1.54765  -0.21288
O     1.41087   2.00964  -0.61540
N    -0.74401   2.30573   0.09441
C    -0.75874   3.74762  -0.00523
C    -1.05101  -0.60315   0.39566
O    -2.08098   0.04475   0.69716
N    -0.99780  -1.94965   0.46809
C    -2.11154  -2.76873   0.89378
H     3.50814  -1.20063  -1.09704
H     3.45729  -2.65358  -0.04383
H     2.89157  -2.76783  -1.71895
H     2.02608   0.14594  -0.68634
H    -1.56781   1.78416   0.40852
H     0.21923   4.09861  -0.35493
H    -1.52946   4.08821  -0.71555
H    -0.96939   4.20992   0.97269
H    -0.11304  -2.38733   0.19876
H    -2.95946  -2.12452   1.15278
H    -2.42429  -3.45829   0.09298
H    -1.84280  -3.37092   1.77655
