24
Generated by autodE on: 2022-06-19. E = -605.594888 Ha
C    -1.12516   3.41749  -0.44849
N    -1.20469   2.06875   0.06510
N    -0.20962   1.34530  -0.24655
C     0.05781   0.05736   0.05344
C    -0.85289  -0.83783   0.78933
O    -0.40177  -1.63797   1.63845
N    -2.17259  -0.82248   0.50075
C    -2.82295  -0.26597  -0.66965
C     1.42750  -0.32220  -0.34242
O     2.11601   0.45559  -1.03918
N     1.88002  -1.52533   0.05809
C     3.22662  -1.96671  -0.23459
H    -0.16421   3.63956  -0.94707
H    -1.27265   4.13273   0.37698
H    -1.94216   3.59053  -1.16977
H     0.58811   1.75040  -0.78666
H    -2.71963  -1.45655   1.07824
H    -3.60228  -0.96503  -1.00418
H    -2.10147  -0.14711  -1.48912
H    -3.28497   0.71168  -0.47007
H     1.31418  -2.00807   0.75516
H     3.98526  -1.38827   0.32112
H     3.32362  -3.02398   0.04287
H     3.44635  -1.86321  -1.30743
