44
Generated by autodE on: 2022-06-19. E = -1063.300272 Ha. Imaginary frequency = -437.5 cm-1
C    -2.86784   3.34964  -0.59625
N    -2.70836   1.94366  -0.30132
C    -1.66772   1.23653  -0.77130
O    -0.85565   1.69970  -1.59738
C    -1.48141  -0.15081  -0.26169
C    -2.47167  -0.81013   0.62302
O    -3.32528  -0.14817   1.25876
N    -2.39913  -2.14901   0.73971
C    -3.23901  -2.86994   1.67217
N    -0.63479  -0.86717  -1.06349
N    -0.00633  -1.91656  -0.53761
C     0.95046  -2.49839  -1.46219
C     0.82161  -1.21018   1.13482
C     2.31160  -1.14893   0.85180
C     2.63592   0.08276   0.03152
C     3.75948   0.17388  -0.90927
N     4.55539  -0.91985  -1.02425
O     3.99866   1.19864  -1.58109
C     1.88376   1.20127   0.23619
N     0.79000   1.21961   1.05250
C     0.17829   2.48599   1.42889
C     0.16380   0.01762   1.40228
H    -3.86007   3.67685  -0.26015
H    -2.78190   3.53567  -1.67682
H    -2.10512   3.96475  -0.08594
H    -3.24845   1.48108   0.43595
H    -1.55946  -2.58027   0.33834
H    -3.03723  -2.58023   2.71796
H    -4.30513  -2.68188   1.47371
H    -3.04704  -3.94498   1.56427
H    -0.11219  -0.25392  -1.70687
H     1.64787  -1.75871  -1.89584
H     1.52564  -3.27299  -0.94104
H     0.40714  -2.98796  -2.28698
H     0.49166  -2.04987   1.74710
H     2.64314  -2.07319   0.36193
H     2.85500  -1.12532   1.81932
H     5.33392  -0.88472  -1.67285
H     4.40663  -1.76606  -0.49062
H     2.13715   2.14771  -0.24449
H     0.63922   2.89496   2.34367
H    -0.89115   2.33712   1.61503
H     0.29715   3.21605   0.61760
H    -0.58567   0.09969   2.18740
