9
Generated by autodE on: 2022-05-28. E = -2803.661942 Ha
C    -3.46642  -0.68191   0.15725
C    -2.57694   0.49212  -0.12764
O    -2.99374   1.60690  -0.40454
C    -1.14311   0.23960  -0.05896
C     0.05172   0.01965  -0.00257
Br    1.81089  -0.29502   0.07708
H    -3.25496  -1.06904   1.16763
H    -3.24398  -1.49559  -0.55251
H    -4.51971  -0.38251   0.07644
