48
Generated by autodE on: 2022-05-31. E = -1400.788189 Ha
C     4.54011   0.39896  -0.91627
N     3.11006   0.56357  -0.75835
C     2.50633   0.47303   0.43561
O     3.12715   0.28419   1.48923
C     0.98093   0.59094   0.44981
N     0.40935   1.17057  -0.75289
C     0.65808   2.59781  -0.91252
C    -0.99577   0.73490  -0.89480
C    -1.39642   0.76344  -2.37318
C    -1.89673   1.67677  -0.04431
O    -1.56180   2.02189   1.09745
N    -3.04248   2.11763  -0.59000
C    -3.95121   2.97396   0.14729
C    -1.03570  -0.72241  -0.25767
C    -2.34230  -0.96243   0.49863
C    -0.76629  -1.85258  -1.31247
C    -0.89394  -3.25059  -0.67157
C     0.33692  -3.31497   0.27470
C     1.06791  -1.98458  -0.00764
C     0.75837  -1.79016  -1.50658
C     0.29189  -0.79545   0.60772
Cl    0.02244  -1.06020   2.39803
H     4.85178  -0.64095  -0.72074
H     5.08648   1.05182  -0.21867
H     4.82090   0.66286  -1.94351
H     2.51546   0.69752  -1.57048
H     0.74320   1.18837   1.34406
H     0.28877   3.19981  -0.06135
H     1.73606   2.78521  -1.01252
H     0.17584   2.96160  -1.83050
H    -2.37964   0.29774  -2.53615
H    -1.43807   1.79421  -2.75240
H    -0.66198   0.21834  -2.97653
H    -3.30123   1.82257  -1.52288
H    -4.79692   3.23636  -0.49994
H    -3.44898   3.89908   0.47021
H    -4.33590   2.46781   1.04765
H    -2.50592  -0.21446   1.28152
H    -3.18851  -0.92852  -0.20447
H    -2.35006  -1.94065   0.99099
H    -1.38040  -1.74756  -2.21294
H    -1.84778  -3.42428  -0.15943
H    -0.81609  -4.00561  -1.46814
H     0.06376  -3.41657   1.33228
H     0.99840  -4.15573   0.01988
H     2.12293  -1.99691   0.29110
H     1.14408  -2.62130  -2.11581
H     1.11396  -0.84471  -1.92358
