28
Generated by autodE on: 2022-05-31. E = -628.879558 Ha
C    -4.39010  -1.28267  -0.44294
N    -2.95692  -1.10876  -0.42801
C    -2.33872   0.10015  -0.26074
O    -3.01533   1.14103  -0.10505
C    -0.88803  -0.03149  -0.28211
N     0.04214   0.94195  -0.18458
C    -0.41113   2.35297  -0.23833
C     1.38656   0.75424  -0.05863
C     2.30108   1.94528  -0.15287
C     1.94138  -0.56783   0.24326
O     1.30398  -1.64403   0.18788
N     3.25444  -0.60064   0.62162
C     3.87731  -1.84525   1.01708
H    -4.73964  -1.68216  -1.40995
H    -4.72038  -1.97469   0.34961
H    -4.86704  -0.30994  -0.27647
H    -2.37512  -1.92942  -0.55444
H    -0.47958  -1.03369  -0.33695
H    -1.49797   2.36931  -0.15267
H     0.04587   2.91539   0.58291
H    -0.10380   2.79299  -1.19540
H     3.30911   1.62568  -0.44567
H     1.97525   2.66000  -0.92030
H     2.39346   2.50522   0.79643
H     3.73447   0.25964   0.85219
H     3.77976  -2.60264   0.22441
H     3.43008  -2.26692   1.93461
H     4.94436  -1.66495   1.20027
