28
Generated by autodE on: 2022-07-27. E = -628.875022 Ha
C     4.48585  -0.95060   0.32308
N     3.12647  -0.66418  -0.08949
C     2.21873  -0.17234   0.80376
O     2.57842   0.08459   1.97372
C     0.80971  -0.00095   0.47054
N     0.19424   0.14252  -0.72223
C     1.03948   0.38032  -1.91818
C    -1.15463   0.17562  -0.93562
C    -1.67022   0.31755  -2.34310
C    -2.09950   0.11333   0.18203
O    -1.79372  -0.15156   1.36716
N    -3.41022   0.36383  -0.11451
C    -4.40852   0.39767   0.93212
H     4.95300  -0.06027   0.76892
H     5.06824  -1.24868  -0.55838
H     4.53503  -1.76324   1.06924
H     2.79687  -1.09776  -0.94328
H     0.14973  -0.00845   1.32966
H     0.60075   1.18138  -2.51912
H     2.03251   0.69568  -1.59925
H     1.11041  -0.53258  -2.52458
H    -1.06884  -0.24645  -3.06814
H    -1.71327   1.36581  -2.69415
H    -2.68498  -0.09344  -2.41565
H    -3.66018   0.74704  -1.01647
H    -4.43408  -0.55323   1.48624
H    -5.39303   0.56320   0.47619
H    -4.22060   1.20217   1.66485
