86
Generated by autodE on: 2022-07-06. E = -2514.433018 Ha
C   -24.58490 -10.03204 -29.11618
N   -23.52888  -9.06506 -29.33186
C   -22.88395  -8.91634 -30.49144
O   -23.17379  -9.51680 -31.53106
C   -21.66799  -7.93900 -30.43565
C   -22.08030  -6.45351 -30.56359
O   -21.27335  -5.55600 -30.64510
O   -23.38522  -6.27385 -30.39061
C   -23.86259  -4.92309 -30.46216
O   -21.09884  -7.96387 -29.14700
C   -20.00615  -8.91381 -29.10103
C   -18.94234  -8.18755 -28.26442
C   -18.63233  -6.86948 -28.63909
C   -17.67837  -6.12945 -27.94006
C   -17.03205  -6.68648 -26.83163
C   -17.35212  -7.98682 -26.43700
C   -18.29473  -8.73164 -27.15033
C   -20.62931 -10.17211 -28.47939
C   -20.94172 -10.19557 -27.10974
C   -21.64435 -11.26561 -26.55173
C   -22.07364 -12.32588 -27.35588
C   -21.82574 -12.28218 -28.72914
C   -21.12336 -11.20859 -29.28171
C   -19.59848  -9.06725 -30.60512
C   -20.53813  -8.43416 -31.36645
C   -20.63883  -8.19822 -32.87542
Cl  -19.87556  -6.53446 -33.29589
C   -22.09324  -7.97150 -33.36727
O   -22.78781  -7.04005 -33.02927
O   -22.45778  -8.85626 -34.28252
C   -23.80197  -8.75399 -34.77642
C   -19.91787  -9.19443 -33.77131
C   -20.29185 -10.66417 -33.52963
C   -19.07216 -11.45489 -33.08604
C   -18.61263 -11.25813 -31.64166
C   -18.29409  -9.85058 -30.99348
C   -17.36239  -9.01212 -31.88652
C   -17.33182  -7.61575 -31.81163
C   -16.39147  -6.87037 -32.52868
C   -15.45228  -7.51161 -33.33672
C   -15.45604  -8.90926 -33.40596
C   -16.39305  -9.64795 -32.68261
C   -17.42751 -10.22486 -29.73623
C   -16.25815  -9.51678 -29.41131
C   -15.43142  -9.91328 -28.35800
C   -15.74548 -11.03918 -27.59480
C   -16.90384 -11.75631 -27.90044
C   -17.72702 -11.35649 -28.95590
H   -24.65294 -10.69065 -29.99048
H   -25.55875  -9.53652 -28.97118
H   -24.36208 -10.63739 -28.22653
H   -23.12997  -8.59108 -28.52719
H   -23.65953  -4.50793 -31.46006
H   -24.94244  -4.97455 -30.28309
H   -23.37618  -4.30143 -29.69728
H   -19.15590  -6.41279 -29.47865
H   -17.44591  -5.11045 -28.25842
H   -16.28667  -6.10916 -26.27947
H   -16.85286  -8.44007 -25.57783
H   -18.48862  -9.75649 -26.84666
H   -20.65583  -9.36304 -26.46846
H   -21.86479 -11.26410 -25.48168
H   -22.62015 -13.16447 -26.91841
H   -22.19070 -13.07827 -29.38185
H   -20.99369 -11.17131 -30.36042
H   -24.51218  -8.87425 -33.94663
H   -23.95927  -7.78118 -35.26296
H   -23.91724  -9.56762 -35.50118
H   -20.11789  -8.90042 -34.80844
H   -18.84442  -9.05278 -33.62321
H   -20.68874 -11.09395 -34.46103
H   -21.10032 -10.75269 -32.78757
H   -18.24798 -11.24756 -33.78718
H   -19.27991 -12.53417 -33.17996
H   -19.34813 -11.74556 -30.99688
H   -17.69748 -11.85282 -31.52308
H   -18.04670  -7.09437 -31.18223
H   -16.40151  -5.78040 -32.45319
H   -14.71865  -6.93206 -33.90212
H   -14.71919  -9.43052 -34.02191
H   -16.34818 -10.73531 -32.72901
H   -15.98109  -8.62853 -29.97420
H   -14.53662  -9.32824 -28.13301
H   -15.09791 -11.35263 -26.77263
H   -17.17548 -12.63971 -27.31746
H   -18.61493 -11.94900 -29.15759
