40
Generated by autodE on: 2022-07-27. E = -1052.262959 Ha
C    -3.40519  -0.77661   1.20963
N    -2.36742   0.10879   0.71943
C    -2.16393   0.29132  -0.60792
O    -3.00940  -0.07192  -1.44188
C    -0.91492   0.97324  -0.99353
O     0.27971   0.77136  -0.36587
C     0.80620  -0.16516   0.35378
C     2.13236   0.15123   0.86308
C     2.63167   1.47136   0.76074
C     3.90495   1.77811   1.22685
C     4.70392   0.78303   1.80633
C     4.22373  -0.52686   1.90526
C     2.95129  -0.84677   1.43608
C     0.12906  -1.44777   0.58485
C     0.01909  -1.97700   1.88296
C    -0.63218  -3.19370   2.08797
C    -1.15805  -3.89922   1.00203
C    -1.03819  -3.38281  -0.29412
C    -0.40952  -2.15815  -0.50498
C    -0.81299   2.05779  -1.92872
O     0.22004   2.68339  -2.17610
O    -1.99299   2.36406  -2.52497
C    -1.96325   3.43468  -3.46869
H    -3.37707  -1.74288   0.68168
H    -4.40928  -0.34389   1.07197
H    -3.24443  -0.95351   2.28004
H    -1.66451   0.42356   1.37811
H     2.00957   2.24386   0.30799
H     4.27893   2.80090   1.14465
H     5.70151   1.02963   2.17664
H     4.84834  -1.30800   2.34363
H     2.60004  -1.87658   1.49464
H     0.42045  -1.41934   2.73038
H    -0.73037  -3.59080   3.10043
H    -1.66553  -4.85273   1.16417
H    -1.44340  -3.93571  -1.14406
H    -0.32992  -1.75308  -1.51513
H    -1.26869   3.21690  -4.29432
H    -2.98534   3.52453  -3.85712
H    -1.66253   4.37877  -2.98913
