46
Generated by autodE on: 2022-07-06. E = -1462.072805 Ha
C    -1.94014  -5.36385  -0.70840
O    -2.19042  -3.95584  -0.85858
C    -1.13232  -3.17540  -1.02858
O     0.01402  -3.56540  -1.04082
C    -1.53029  -1.70325  -1.22482
Cl   -2.05286  -1.62133  -3.00691
C    -0.41086  -0.82168  -0.96826
C     0.21216  -0.01714  -0.31039
C     0.59666   0.87835   0.78071
C     0.25521   2.34633   0.45677
C     0.63571   3.34752   1.36436
C     0.31545   4.68480   1.12668
C    -0.38866   5.04631  -0.02789
C    -0.76839   4.05714  -0.93693
C    -0.44930   2.71561  -0.69535
C     2.10113   0.76334   1.07443
C     3.00136   0.84389   0.00014
C     4.37874   0.78357   0.21330
C     4.88153   0.64286   1.51208
C     3.99371   0.56317   2.58659
C     2.61136   0.62203   2.37067
C    -0.29918   0.37953   1.96869
C    -1.80930   0.24639   1.67994
C    -2.36322  -1.10917   1.15713
C    -2.70525  -1.23831  -0.34302
H    -1.44611  -5.75868  -1.60758
H    -1.30690  -5.54501   0.17141
H    -2.92248  -5.83044  -0.57546
H     1.19245   3.07949   2.26461
H     0.62065   5.44954   1.84501
H    -0.63689   6.09347  -0.21622
H    -1.31752   4.32515  -1.84286
H    -0.75408   1.95177  -1.41220
H     2.61406   0.95760  -1.01562
H     5.06260   0.84564  -0.63669
H     5.95952   0.59486   1.68321
H     4.37418   0.45286   3.60496
H     1.94034   0.56029   3.22712
H    -0.15943   1.08927   2.79677
H     0.09551  -0.59057   2.30835
H    -2.31138   0.43567   2.64094
H    -2.13841   1.06288   1.01555
H    -1.69518  -1.93306   1.46288
H    -3.30965  -1.29310   1.68784
H    -3.52734  -1.95279  -0.48373
H    -3.04270  -0.26756  -0.73522
