86
Generated by autodE on: 2022-07-06. E = -2514.334260 Ha. Imaginary frequency = -282.0 cm-1
C   -24.60969  -8.97775 -28.36447
N   -23.45491  -8.19888 -28.76651
C   -23.03226  -8.17717 -30.04474
O   -23.69224  -8.67197 -30.96438
C   -21.73759  -7.44629 -30.29949
C   -21.82878  -6.04950 -30.77441
O   -20.86906  -5.30120 -30.88717
O   -23.09108  -5.66225 -31.00617
C   -23.27032  -4.36766 -31.58658
O   -20.71460  -7.50917 -29.43559
C   -20.08776  -8.51235 -28.85860
C   -18.85120  -8.07050 -28.20016
C   -18.40943  -6.73394 -28.33502
C   -17.23576  -6.30918 -27.72137
C   -16.48056  -7.19924 -26.94634
C   -16.91212  -8.51933 -26.79840
C   -18.08059  -8.95436 -27.42204
C   -20.84611  -9.69883 -28.36677
C   -20.97799  -9.85794 -26.97356
C   -21.74043 -10.90027 -26.44243
C   -22.38351 -11.80355 -27.29168
C   -22.27271 -11.64349 -28.67640
C   -21.51809 -10.59939 -29.20817
C   -19.54203  -9.16078 -31.34463
C   -20.55618  -8.69611 -31.90448
C   -21.33827  -8.68947 -33.15935
Cl  -22.12749  -7.06040 -33.50926
C   -22.47811  -9.73138 -33.16451
O   -23.45902  -9.66341 -33.86731
O   -22.17568 -10.78071 -32.40664
C   -23.14922 -11.83239 -32.33112
C   -20.47127  -8.91801 -34.42866
C   -19.74214 -10.25249 -34.59663
C   -18.31375 -10.33716 -34.04685
C   -18.14509 -10.80657 -32.60245
C   -18.16902  -9.75527 -31.43453
C   -17.17023  -8.61442 -31.70754
C   -17.48633  -7.27724 -31.43486
C   -16.55516  -6.25561 -31.64777
C   -15.28806  -6.55121 -32.15323
C   -14.96424  -7.88011 -32.44684
C   -15.89479  -8.89757 -32.22685
C   -17.75891 -10.59258 -30.20076
C   -16.51371 -10.47218 -29.57225
C   -16.13942 -11.34419 -28.54400
C   -17.01261 -12.34156 -28.10762
C   -18.26157 -12.47086 -28.72543
C   -18.61649 -11.61651 -29.76941
H   -24.54319 -10.00308 -28.75904
H   -25.54578  -8.52859 -28.73294
H   -24.64363  -9.02046 -27.26924
H   -22.85210  -7.82108 -28.04364
H   -22.72040  -4.29136 -32.53663
H   -24.34671  -4.26021 -31.76438
H   -22.91894  -3.58202 -30.90179
H   -18.99959  -6.03058 -28.92032
H   -16.90907  -5.27393 -27.84233
H   -15.56168  -6.86244 -26.46096
H   -16.32672  -9.22665 -26.20765
H   -18.38224  -9.99462 -27.32075
H   -20.50030  -9.14870 -26.29744
H   -21.83218 -11.00171 -25.35873
H   -22.97558 -12.62269 -26.87737
H   -22.77806 -12.33526 -29.35319
H   -21.44354 -10.49031 -30.28495
H   -24.05382 -11.46126 -31.82924
H   -23.40211 -12.19635 -33.33649
H   -22.68458 -12.63021 -31.74162
H   -21.16689  -8.78764 -35.26945
H   -19.75111  -8.08758 -34.47432
H   -19.68238 -10.41628 -35.68410
H   -20.34902 -11.08579 -34.20616
H   -17.79661  -9.37736 -34.20914
H   -17.77330 -11.07048 -34.66670
H   -18.91096 -11.56293 -32.37772
H   -17.18042 -11.32651 -32.51286
H   -18.47555  -7.02135 -31.06137
H   -16.83040  -5.22345 -31.41774
H   -14.55969  -5.75481 -32.32338
H   -13.97980  -8.12893 -32.85062
H   -15.61486  -9.92629 -32.45635
H   -15.82410  -9.68255 -29.86535
H   -15.16371 -11.22216 -28.06792
H   -16.72518 -13.01277 -27.29488
H   -18.96227 -13.24372 -28.40015
H   -19.57569 -11.75574 -30.26388
