51
Generated by autodE on: 2022-06-08. E = -3874.245880 Ha
C    -3.51369  -2.92590   1.76412
N    -2.88042  -1.70261   1.31531
C    -1.68216  -1.65699   0.72057
O    -0.97907  -2.64080   0.47399
C    -1.23059  -0.23586   0.28720
C    -1.64469   0.01498  -1.15185
C    -1.27890  -0.90813  -2.14396
C    -1.59332  -0.66273  -3.48157
C    -2.27724   0.50323  -3.84211
C    -2.64209   1.42209  -2.85532
C    -2.32490   1.18358  -1.51413
O    -1.85531   0.75181   1.12291
N    -1.04568   0.82056   2.26788
C    -1.54655   1.34192   3.41524
C    -3.02693   1.60403   3.44337
O    -0.78338   1.56107   4.36098
C     0.34977   0.60467   1.94112
C     1.11212   1.92744   1.60451
O     0.58293   2.23562   0.31620
C     0.99365   1.01908  -0.31972
C     2.48643   0.92963   0.03643
C     3.45303   0.19680  -0.77642
C     2.98824  -0.69061  -1.77111
C     3.88544  -1.41966  -2.55227
C     5.26326  -1.26932  -2.36924
C     5.73749  -0.38158  -1.39705
C     4.84553   0.34198  -0.60660
C     2.53521   1.51547   1.25357
Br    3.91813   1.62473   2.51962
C     0.28412  -0.06598   0.54306
H    -4.48219  -3.07144   1.26107
H    -2.85971  -3.77290   1.52581
H    -3.68590  -2.90190   2.85112
H    -3.34587  -0.81604   1.48598
H    -0.74167  -1.81572  -1.86615
H    -1.30008  -1.38602  -4.24588
H    -2.52271   0.69440  -4.88929
H    -3.17505   2.33625  -3.12726
H    -2.59978   1.91069  -0.75103
H    -3.29698   1.97634   4.43892
H    -3.29905   2.34994   2.68073
H    -3.58977   0.68443   3.22329
H     0.83111   0.01844   2.73147
H     0.97393   2.74202   2.32262
H     0.74524   1.02867  -1.38374
H     1.91672  -0.82399  -1.93029
H     3.50405  -2.10740  -3.31049
H     5.96520  -1.83718  -2.98422
H     6.81249  -0.24909  -1.25420
H     5.23351   1.03716   0.13719
H     0.78602  -1.03492   0.47990
