28
Generated by autodE on: 2022-07-27. E = -761.863103 Ha
C    -0.56277  -3.21346   2.34034
N    -0.46380  -1.89799   1.74042
C    -0.13472  -1.76062   0.45194
O     0.08056  -2.69846  -0.31937
C    -0.05685  -0.33129  -0.06858
O     0.17142   0.68132   0.67708
N     0.30949   0.63132   2.07703
C     0.68780   1.87186   2.48187
C     0.81444   1.95433   3.98515
O     0.92031   2.84834   1.75443
C    -0.18717  -0.01249  -1.48026
C    -0.76968  -0.91148  -2.40308
C    -0.91151  -0.54060  -3.73738
C    -0.47205   0.71358  -4.17306
C     0.10267   1.61399  -3.26495
C     0.23887   1.26240  -1.92909
H    -1.23673  -3.85384   1.75265
H     0.42129  -3.70912   2.38489
H    -0.95721  -3.11071   3.35809
H    -0.39912  -1.04928   2.31753
H     0.11766   2.72255   4.35639
H     1.83441   2.28383   4.23761
H     0.60346   0.99968   4.48450
H    -1.11576  -1.88608  -2.06812
H    -1.36987  -1.23582  -4.44332
H    -0.57893   0.99382  -5.22341
H     0.44486   2.59307  -3.60577
H     0.67898   1.95962  -1.21566
