51
Generated by autodE on: 2022-06-08. E = -3874.137480 Ha. Imaginary frequency = -176.9 cm-1
C    -2.90703  -3.48153   2.41589
N    -2.74507  -2.14221   1.88489
C    -2.15489  -1.94725   0.69780
O    -1.77575  -2.87311  -0.02748
C    -2.02616  -0.49790   0.24408
C    -2.09057  -0.11341  -1.17125
C    -2.21715  -1.05448  -2.21522
C    -2.25828  -0.63036  -3.54266
C    -2.17507   0.72874  -3.85748
C    -2.05364   1.67194  -2.82973
C    -2.01023   1.26015  -1.50226
O    -2.25558   0.50623   1.04822
N    -1.98670   0.37540   2.40201
C    -2.04946   1.61286   2.99196
C    -2.45152   2.83010   2.19526
O    -1.74378   1.68400   4.18830
C     0.37175  -0.28176   1.96072
C     0.94877   1.14462   1.99759
O     0.42610   1.67368   0.77471
C     0.93362   0.62720  -0.06675
C     2.45195   0.67157   0.28842
C     3.49896   0.28054  -0.64621
C     3.15512  -0.45389  -1.80164
C     4.13588  -0.86522  -2.70456
C     5.47763  -0.54051  -2.48325
C     5.83111   0.19998  -1.34927
C     4.85656   0.60518  -0.43884
C     2.43333   1.00625   1.59697
Br    3.79804   1.08175   2.87951
C     0.35256  -0.61320   0.63531
H    -3.47505  -3.42446   3.35215
H    -3.45257  -4.11719   1.70353
H    -1.93210  -3.95682   2.61644
H    -2.78651  -1.33108   2.50902
H    -2.27925  -2.11299  -1.97912
H    -2.35851  -1.37172  -4.33829
H    -2.20446   1.05403  -4.89980
H    -1.98717   2.73598  -3.06618
H    -1.90549   1.99970  -0.71050
H    -2.55145   3.67919   2.88251
H    -1.67386   3.05177   1.44869
H    -3.39395   2.66782   1.65341
H     0.27513  -0.92993   2.82776
H     0.71949   1.76874   2.86657
H     0.67457   0.79004  -1.11669
H     2.11306  -0.71857  -1.98913
H     3.84902  -1.44062  -3.58776
H     6.24478  -0.85854  -3.19293
H     6.87592   0.46681  -1.17388
H     5.14815   1.19043   0.43273
H     0.32970  -1.60769   0.19673
