26
Generated by autodE on: 2022-10-06. E = -835.358651 Ha
C     2.98582  -0.91875  -1.03880
N     1.88655  -0.88258  -0.09577
C     1.77012   0.15593   0.75278
O     2.68771   0.95987   0.97172
C     0.43773   0.29647   1.49418
N    -0.09939  -1.00374   1.91746
C    -1.16990  -1.25588   1.25816
C    -1.95484  -2.51368   1.42326
C    -1.58288  -0.20766   0.24906
C    -1.35909  -0.68727  -1.21099
O    -2.04666  -0.13224  -2.09652
O    -0.50528  -1.60448  -1.40341
C    -0.70061   0.99409   0.68974
C    -0.31062   1.97572  -0.43510
O    -0.89870   3.08870  -0.43888
O     0.54433   1.59717  -1.28019
H     2.91836  -0.09111  -1.76777
H     2.96465  -1.87059  -1.58601
H     3.95057  -0.83342  -0.51875
H     1.00282  -1.29890  -0.42862
H     0.68959   0.89612   2.37956
H    -2.99427  -2.28018   1.70811
H    -1.50775  -3.16943   2.18272
H    -1.99814  -3.04980   0.46145
H    -2.64993   0.04319   0.33412
H    -1.28807   1.56879   1.41844
