16
Generated by autodE on: 2022-10-06. E = -380.205591 Ha
C     3.60083  -0.29533   0.62778
C     2.22988   0.18457   0.78330
N     1.06773  -0.02798   0.76839
C    -0.24255  -0.13993   0.66409
C    -0.84065   0.16726  -0.62077
O    -0.16165   0.53222  -1.60664
N    -2.19510   0.04534  -0.71619
C    -3.08997  -0.40012   0.33132
H     3.63965  -1.38074   0.43476
H     4.06870   0.24329  -0.21152
H     4.18558  -0.05380   1.52851
H    -0.79704  -0.42121   1.55772
H    -2.57860   0.24326  -1.63422
H    -3.06696   0.26715   1.20896
H    -2.85547  -1.42189   0.67484
H    -4.11506  -0.40327  -0.06053
