26
Generated by autodE on: 2022-10-06. E = -835.256358 Ha. Imaginary frequency = -317.4 cm-1
C     2.86730  -0.43436  -0.87743
N     1.81782  -0.56720   0.11314
C     1.74057   0.34027   1.12194
O     2.64162   1.17168   1.34813
C     0.53233   0.31508   1.95358
N    -0.28026  -0.72426   1.96000
C    -1.17971  -1.34013   1.44305
C    -1.81714  -2.66021   1.48835
C    -1.83278   0.06857  -0.17329
C    -1.54247  -0.91368  -1.29854
O    -0.44235  -1.54810  -1.29091
O    -2.45539  -1.07239  -2.14576
C    -1.15604   1.24895   0.05104
C    -0.05986   1.85830  -0.77980
O     0.47840   2.90893  -0.31909
O     0.23691   1.32878  -1.89165
H     3.86364  -0.50405  -0.41505
H     2.81037   0.52448  -1.42094
H     2.76658  -1.24882  -1.60776
H     0.92954  -0.95281  -0.25367
H     0.48962   1.01556   2.78959
H    -1.43761  -3.24045   0.63259
H    -1.58364  -3.19816   2.42022
H    -2.90636  -2.56586   1.36660
H    -2.85091  -0.00779   0.22377
H    -1.56844   1.93465   0.79846
