33
Generated by autodE on: 2022-10-22. E = -781.624343 Ha
C    -2.15723  -2.31595   2.73917
N    -2.12521  -1.45345   1.58133
C    -0.98417  -0.85649   1.16741
O     0.10823  -1.07486   1.74505
C    -1.10274   0.04750   0.02282
C    -2.29898   0.35635  -0.66725
C    -2.25113   1.25892  -1.88785
O    -3.42901  -0.10470  -0.33702
N     0.12854   0.67300  -0.36902
C     0.28317   2.10339  -0.04858
C     1.13358  -0.02514  -0.80867
C     1.04231  -1.46060  -1.15540
C     2.45047   0.65940  -1.11692
O     2.63685   0.98837  -2.29144
N     3.32828   0.81294  -0.12335
C     3.14175   0.45944   1.27449
H    -1.45551  -3.15992   2.63630
H    -3.17097  -2.72153   2.85354
H    -1.89215  -1.78049   3.66781
H    -2.97148  -1.17363   1.07679
H    -1.24868   1.39714  -2.31359
H    -2.90981   0.82786  -2.65662
H    -2.66221   2.24869  -1.62774
H     1.00232   2.58164  -0.72401
H     0.61504   2.19255   0.99623
H    -0.69007   2.59268  -0.14964
H     1.41339  -2.05636  -0.30486
H     0.00200  -1.75390  -1.35200
H     1.68372  -1.66727  -2.02365
H     4.20595   1.25729  -0.39079
H     3.18648   1.35777   1.90849
H     3.92910  -0.23685   1.59919
H     2.16801  -0.02481   1.42339
