50
Generated by autodE on: 2022-10-22. E = -1663.304403 Ha. Imaginary frequency = -269.0 cm-1
C     4.62046   1.90866   1.10870
N     3.38936   1.23103   0.74758
C     2.56972   1.72189  -0.18195
O     2.80743   2.75452  -0.82357
C     1.33292   0.91151  -0.57265
C     1.66913   0.19353  -1.85201
N     0.13905   1.50663  -0.29617
C     0.12144   2.44498   0.84161
C    -1.04485   0.91377  -0.75969
C    -1.15069   0.68203  -2.21482
C    -0.52347   1.68941  -3.15487
O    -1.88126  -0.19608  -2.69316
C    -2.33695   1.11044  -0.04001
O    -2.43590   1.66648   1.06665
N    -3.45128   0.64594  -0.66312
C    -4.75440   0.75938  -0.04832
C    -0.56303  -1.15083   0.60126
O    -1.25068  -0.85501   1.70609
C    -2.56879  -1.38811   1.88277
C    -0.90005  -2.34193  -0.31535
C    -0.50669  -3.58867   0.50925
C     0.83006  -3.56103   0.55411
C     1.24043  -2.30578  -0.24695
O     0.19421  -2.26959  -1.23281
C     0.85103  -1.06003   0.58750
Cl    1.62651  -0.94980   2.18797
H     5.17992   1.27514   1.80766
H     4.42036   2.87937   1.59100
H     5.23884   2.09243   0.21767
H     3.08708   0.42376   1.28762
H     0.88501  -0.47900  -2.20211
H     2.57976  -0.39561  -1.68354
H     1.90541   0.92877  -2.63495
H     1.04465   3.03117   0.83280
H    -0.72194   3.12890   0.73834
H     0.03011   1.90621   1.79368
H    -0.10775   1.18576  -4.03887
H    -1.35758   2.32722  -3.49602
H     0.22639   2.33636  -2.68973
H    -3.32823   0.08068  -1.49823
H    -5.51453   0.43890  -0.77262
H    -4.96474   1.79944   0.24473
H    -4.85106   0.13346   0.85571
H    -3.12989  -1.39837   0.94100
H    -3.07378  -0.73643   2.60451
H    -2.50425  -2.40917   2.28829
H    -1.86604  -2.33720  -0.82760
H    -1.20609  -4.27828   0.97960
H     1.51821  -4.23085   1.06809
H     2.23379  -2.30732  -0.70555
