36
Generated by autodE on: 2022-05-29. E = -933.822573 Ha
C     4.60312   1.22217   0.90814
O     3.28719   0.65336   0.86425
C     2.56862   0.85231  -0.25006
O     2.98207   1.47212  -1.21222
C     1.24481   0.22269  -0.13718
C     0.33223   0.02032  -1.11060
C     0.37946   0.41820  -2.53914
C    -0.83725  -0.76475  -0.56556
C    -2.19696  -0.24295  -0.98386
C    -2.56474   1.08039  -0.69752
C    -3.81233   1.56616  -1.09078
C    -4.70709   0.73269  -1.77368
C    -4.34666  -0.58609  -2.06100
C    -3.09448  -1.07074  -1.66698
N    -0.63535  -0.71435   0.88805
C    -1.28703  -1.75430   1.66449
C     0.77219  -0.45589   1.15494
C     0.90885   0.39523   2.36226
N     0.95636   1.06600   3.30588
C     1.57109  -1.70178   1.36691
N     2.12360  -2.71424   1.48777
H     5.00882   0.96527   1.89309
H     5.23051   0.79451   0.11306
H     4.55120   2.31374   0.78852
H    -0.30845   1.26492  -2.70360
H     1.38470   0.71922  -2.85186
H     0.01219  -0.40844  -3.16768
H    -0.73542  -1.80141  -0.95099
H    -1.86655   1.73095  -0.16586
H    -4.08936   2.59898  -0.86638
H    -5.68422   1.11340  -2.08047
H    -5.04128  -1.24193  -2.59116
H    -2.80989  -2.10226  -1.88933
H    -2.36537  -1.72920   1.45434
H    -1.14554  -1.56582   2.73883
H    -0.91099  -2.76859   1.42885
