13
Generated by autodE on: 2022-05-29. E = -344.695468 Ha
C    -3.38714   0.44177   0.66853
C    -1.99303   0.25495   0.31127
C    -0.82417   0.10077   0.01691
C     0.54688  -0.08142  -0.39708
O     0.90680  -0.16410  -1.55664
O     1.37975  -0.14895   0.64878
C     2.77227  -0.32988   0.34522
H    -4.04959   0.15098  -0.16193
H    -3.57994   1.50029   0.90836
H    -3.64724  -0.16013   1.55385
H     3.28817  -0.36062   1.31165
H     2.92787  -1.27201  -0.20006
H     3.14582   0.50876  -0.26000
