23
Generated by autodE on: 2022-05-29. E = -589.047663 Ha
C     0.97472  -0.93829  -1.46855
N     1.00364  -0.17914  -0.20664
C    -0.08893   0.14675   0.44520
C    -1.47526  -0.01133   0.04800
C    -1.95358  -0.02620  -1.28211
C    -3.31856  -0.14921  -1.53549
C    -4.23163  -0.25909  -0.48119
C    -3.77443  -0.22054   0.84088
C    -2.41438  -0.08393   1.10351
C     2.28805   0.16096   0.27645
C     2.41528   0.94443   1.43295
N     2.51969   1.60052   2.39793
C     3.44673  -0.25452  -0.39490
N     4.44134  -0.57370  -0.92684
H     1.02123  -0.25037  -2.32305
H     1.84276  -1.60527  -1.49472
H     0.06334  -1.53999  -1.51007
H     0.07804   0.59251   1.42889
H    -1.27128   0.09824  -2.12093
H    -3.67350  -0.14998  -2.56832
H    -5.29913  -0.35945  -0.68979
H    -4.48246  -0.29004   1.66951
H    -2.05760  -0.04162   2.13509
