23
Generated by autodE on: 2022-07-26. E = -589.047697 Ha
C    -0.11309   1.39827   1.41770
N     0.65374   0.34595   0.72983
C     0.12329  -0.42597  -0.19064
C    -1.18172  -0.33691  -0.81816
C    -1.92225   0.85219  -1.00615
C    -3.15246   0.81652  -1.66020
C    -3.66962  -0.39229  -2.13853
C    -2.93547  -1.57324  -1.98113
C    -1.69953  -1.54470  -1.34146
C     2.00104   0.20506   1.13418
C     2.52112   0.96489   2.19180
N     3.00007   1.58423   3.06421
C     2.84362  -0.69256   0.46164
N     3.54731  -1.44031  -0.10255
H    -1.17700   1.15075   1.39065
H     0.21522   1.44298   2.46145
H     0.06871   2.36982   0.93945
H     0.75837  -1.25113  -0.52207
H    -1.52564   1.81195  -0.67993
H    -3.70862   1.74505  -1.80623
H    -4.63644  -0.41117  -2.64644
H    -3.32562  -2.51813  -2.36536
H    -1.12009  -2.46375  -1.22824
