36
Generated by autodE on: 2022-05-29. E = -933.730638 Ha. Imaginary frequency = -424.6 cm-1
C     4.77595   0.51919   0.90119
O     3.58025   0.28794   0.14323
C     2.58944   1.18294   0.30220
O     2.69628   2.18170   0.99704
C     1.39362   0.80698  -0.39768
C     0.41550   0.76199  -1.17915
C    -0.17364   1.21468  -2.45706
C    -0.92903  -0.63235  -0.37813
C    -2.28032  -0.38275  -0.91346
C    -3.00679   0.80226  -0.68470
C    -4.25992   0.98505  -1.26923
C    -4.80509  -0.00232  -2.09699
C    -4.08252  -1.17188  -2.35121
C    -2.82656  -1.35565  -1.77195
N    -0.60525  -0.54248   0.94376
C    -1.35843   0.30019   1.87447
C     0.71600  -0.79722   1.26313
C     1.26415  -0.34741   2.49156
N     1.78571   0.04720   3.45694
C     1.41205  -1.85719   0.61368
N     1.98848  -2.72365   0.08969
H     4.54905   0.54078   1.97692
H     5.44277  -0.32010   0.67178
H     5.24644   1.46849   0.60676
H    -1.05394   1.84935  -2.27808
H     0.56444   1.79145  -3.03414
H    -0.51108   0.35769  -3.05990
H    -0.39980  -1.43795  -0.89220
H    -2.57954   1.60043  -0.07855
H    -4.80985   1.91068  -1.08554
H    -5.78655   0.14626  -2.55313
H    -4.49572  -1.94188  -3.00644
H    -2.25722  -2.26504  -1.97775
H    -2.43011   0.16189   1.70423
H    -1.08914   1.35869   1.73843
H    -1.12567  -0.00686   2.89996
