52
Generated by autodE on: 2022-06-06. E = -1429.349661 Ha
C     3.19271   2.90269   2.05703
N     2.33229   2.36185   1.02383
C     1.59627   1.23888   1.17407
O     1.57088   0.54673   2.21997
C     0.82486   0.78662  -0.09127
C     1.70153  -0.26510  -0.79227
C     2.32893  -1.28179  -0.05489
C     3.03637  -2.29484  -0.70222
C     3.14459  -2.30289  -2.09648
C     2.54201  -1.28312  -2.83524
C     1.82419  -0.27294  -2.18868
N     0.71532   1.93819  -1.01925
N    -0.42112   2.15202  -1.44336
C    -1.45177   1.26418  -0.85312
C    -2.24522   0.72527  -2.04824
F    -1.44355   0.32765  -3.05960
F    -3.03667  -0.31067  -1.73489
F    -3.03720   1.68431  -2.56019
C    -2.33511   2.19075   0.04252
C    -3.50184   1.39414   0.65357
C    -2.77312   0.43200   1.63081
C    -1.28687   0.85758   1.52305
C    -1.42928   2.36314   1.26645
C    -0.68734   0.31219   0.17801
C    -0.76110  -1.21337   0.09330
C    -0.68741  -1.95864   1.28319
C    -0.59478  -3.35241   1.26886
C    -0.56887  -4.04521   0.05709
C    -0.63627  -3.32124  -1.13535
C    -0.72802  -1.92833  -1.11468
H     3.07276   2.30790   2.96968
H     4.24898   2.86842   1.74651
H     2.92729   3.94848   2.27383
H     2.28514   2.83040   0.12359
H     2.24012  -1.29495   1.02963
H     3.50227  -3.08634  -0.11066
H     3.69581  -3.09892  -2.60236
H     2.61848  -1.27377  -3.92498
H     1.33671   0.49197  -2.79097
H    -2.62853   3.09897  -0.49569
H    -4.15132   2.09810   1.19346
H    -4.12688   0.87801  -0.08382
H    -2.93186  -0.62188   1.37373
H    -3.11831   0.57408   2.66493
H    -0.68669   0.58810   2.39175
H    -1.94592   2.87923   2.08785
H    -0.49019   2.89475   1.07046
H    -0.67592  -1.45195   2.24632
H    -0.53468  -3.89540   2.21512
H    -0.49061  -5.13480   0.04179
H    -0.60391  -3.83949  -2.09660
H    -0.72715  -1.40836  -2.06580
