22
Generated by autodE on: 2022-06-06. E = -588.101921 Ha
C    -3.24501  -0.84875  -1.59204
N    -1.96794  -0.58899  -0.95982
C    -1.83568   0.14062   0.17041
O    -2.79743   0.60350   0.80064
C    -0.44711   0.33890   0.65747
N    -0.39414   0.82852   1.87274
N    -0.35673   1.24964   2.92096
C     0.83295   0.01477  -0.01088
C     1.01757   0.27742  -1.38210
C     2.22820  -0.03321  -2.00490
C     3.28118  -0.58623  -1.27034
C     3.11361  -0.83092   0.09669
C     1.89979  -0.54113   0.72061
H    -3.32227  -0.34000  -2.56697
H    -3.38570  -1.92849  -1.75369
H    -4.04652  -0.48242  -0.94034
H    -1.13390  -0.95420  -1.40607
H     0.21819   0.74217  -1.96134
H     2.35195   0.17457  -3.07031
H     4.22891  -0.82202  -1.75956
H     3.93014  -1.26172   0.68090
H     1.77387  -0.75270   1.78502
