47
Generated by autodE on: 2022-06-20. E = -1073.137182 Ha
C     5.45305  -0.44440  -0.73162
C     4.50880  -0.14698   0.18386
C     4.86524   0.26471   1.58768
C     3.09124  -0.22024  -0.18667
C     2.05455   0.05343   0.62579
C     0.62770  -0.03772   0.19380
C    -0.20399   1.23444   0.50359
C     0.02076   2.23607  -0.61433
O    -0.62690   2.33050  -1.63591
O     1.09365   2.99087  -0.34905
C     1.51355   3.90297  -1.37397
N    -1.56548   0.75870   0.65650
C    -2.71576   1.59425   0.38752
C    -1.66786  -0.67150   0.51320
C    -2.65648  -1.20343   1.47284
N    -3.43533  -1.57064   2.25003
C    -2.06813  -1.11689  -0.91721
O    -1.73643  -0.51377  -1.91200
O    -2.78288  -2.23546  -0.91780
C    -3.14548  -2.77949  -2.19947
C    -0.20285  -1.18489   0.84579
C     0.00762  -1.24730   2.36351
C     0.12283  -2.54147   0.22600
H     5.18075  -0.74111  -1.74914
H     6.51845  -0.39916  -0.48888
H     4.42348  -0.42394   2.32704
H     5.95434   0.27927   1.73484
H     4.46989   1.26815   1.81769
H     2.88150  -0.52030  -1.22012
H     2.23260   0.36626   1.65827
H     0.59679  -0.20383  -0.89235
H     0.16328   1.70744   1.43131
H     0.72121   4.63560  -1.58435
H     2.40370   4.40914  -0.98313
H     1.76071   3.35676  -2.29585
H    -3.00440   1.62752  -0.67815
H    -2.50300   2.62206   0.71549
H    -3.58150   1.23727   0.96871
H    -3.73071  -3.68119  -1.98834
H    -2.24076  -3.03352  -2.76982
H    -3.74716  -2.05271  -2.76269
H    -0.22393  -0.29313   2.85755
H    -0.61824  -2.03151   2.81246
H     1.05579  -1.49912   2.57729
H     0.05379  -2.52577  -0.87186
H     1.15411  -2.82060   0.48803
H    -0.55119  -3.32158   0.61020
