23
Generated by autodE on: 2022-06-20. E = -351.521384 Ha
C     3.56133   0.62015  -1.10916
C     2.52554   0.49871  -0.25002
C     2.70887   0.70226   1.23226
C     1.19499   0.16447  -0.75401
C     0.07743   0.01601   0.00090
C    -1.21984  -0.31607  -0.55195
C    -2.38136  -0.48268   0.12971
C    -3.65371  -0.82571  -0.59235
C    -2.51918  -0.34698   1.61958
H     4.56718   0.86959  -0.75995
H     3.42451   0.47163  -2.18478
H     3.75264   0.94701   1.47453
H     2.06663   1.51803   1.60381
H     2.42536  -0.20220   1.79577
H     1.11488   0.02594  -1.83898
H     0.14953   0.15333   1.08325
H    -1.25094  -0.44317  -1.64088
H    -4.42796  -0.05956  -0.40681
H    -4.07168  -1.77774  -0.21850
H    -3.50478  -0.91374  -1.67856
H    -1.57801  -0.10808   2.13115
H    -3.25342   0.44079   1.86478
H    -2.91807  -1.28132   2.05255
