13
Generated by autodE on: 2022-10-07. E = -245.298492 Ha
C     1.51774  -1.27243   0.07967
N     0.73837  -0.15025   0.57351
C    -0.36743   0.31406  -0.01309
N    -1.00555   1.36296   0.51615
N    -0.84406  -0.26482  -1.11733
H     0.91833  -2.19610   0.04830
H     1.92003  -1.07409  -0.92665
H     2.35902  -1.43076   0.76362
H     1.06279   0.33811   1.40199
H    -1.82640   1.74930   0.06303
H    -0.62876   1.83317   1.33200
H    -0.38650  -1.06760  -1.53251
H    -1.68338   0.09579  -1.55850
