33
Generated by autodE on: 2022-10-07. E = -877.465882 Ha
C     4.22401   0.07163   1.87580
O     3.58534  -0.08493   0.60433
C     2.23739  -0.04617   0.59459
O     1.57843   0.11956   1.62080
C     1.69567  -0.24363  -0.72496
C     2.55552  -0.50892  -1.80532
N     3.28680  -0.71840  -2.69473
N     0.30970  -0.37017  -0.90516
C    -0.11769  -1.32417  -1.95022
C    -0.57458   0.26485  -0.16035
C    -0.19138   1.53936   0.57606
C    -0.79276   1.76753   1.93204
O     0.47490   2.37929  -0.00182
C    -1.98044  -0.16082  -0.07878
C    -3.01030   0.78326  -0.25045
C    -4.34465   0.39455  -0.13506
C    -4.66612  -0.93204   0.17036
C    -3.64729  -1.87250   0.35718
C    -2.31149  -1.49390   0.23171
H     5.30160   0.06680   1.67326
H     3.96503  -0.75967   2.54816
H     3.93178   1.02278   2.34456
H     0.07984  -2.35153  -1.61919
H    -1.17768  -1.18479  -2.17293
H     0.46860  -1.11778  -2.85400
H    -1.74290   2.31384   1.81315
H    -1.00118   0.82487   2.45311
H    -0.10976   2.39495   2.52004
H    -2.76368   1.81898  -0.49332
H    -5.13698   1.13125  -0.28359
H    -5.71178  -1.23263   0.26721
H    -3.89411  -2.90671   0.60676
H    -1.51883  -2.22634   0.39253
