33
Generated by autodE on: 2022-10-14. E = -877.461658 Ha
C     4.44261  -1.25166   1.23649
O     3.29855  -0.40381   1.11823
C     2.56601  -0.53030  -0.01768
O     2.88926  -1.30637  -0.91468
C     1.40851   0.32379   0.00647
C     1.03948   1.00293   1.17833
N     0.72313   1.57981   2.14687
N     0.53222   0.39541  -1.10252
C     1.16075   0.62285  -2.41766
C    -0.77771   0.36716  -0.97690
C    -1.66370   0.81777  -2.13122
C    -1.65246   2.27183  -2.48711
O    -2.40479  -0.00292  -2.63607
C    -1.47343  -0.12460   0.21803
C    -1.02899  -1.28783   0.87996
C    -1.74269  -1.78644   1.96462
C    -2.89121  -1.12505   2.41993
C    -3.33549   0.02911   1.77060
C    -2.63849   0.52354   0.66720
H     5.16524  -1.05312   0.43078
H     4.15227  -2.31273   1.20568
H     4.89409  -1.01696   2.20815
H     1.55948   1.64513  -2.45373
H     1.97894  -0.09636  -2.52273
H     0.43691   0.45155  -3.22157
H    -0.63318   2.67086  -2.58343
H    -2.22833   2.43851  -3.40694
H    -2.12750   2.81492  -1.65067
H    -0.13564  -1.80657   0.52981
H    -1.40214  -2.69745   2.46125
H    -3.44000  -1.51467   3.28023
H    -4.23068   0.54725   2.12045
H    -2.99439   1.42447   0.16361
