46
Generated by autodE on: 2022-10-07. E = -1122.677178 Ha. Imaginary frequency = -303.6 cm-1
C    -0.63519   1.28080   2.70385
N    -0.88704   2.06115   1.49951
C    -0.15710   2.17630   0.40320
N    -0.44455   3.09969  -0.51910
N     1.14919   1.58709   0.32596
C     1.35004  -0.11815  -0.05114
C     1.28788  -0.74938   1.27707
N     1.36174  -1.30910   2.28911
C     2.81908  -0.12297  -0.57145
O     3.27559   0.84236  -1.13690
O     3.41143  -1.26439  -0.34141
C     4.74903  -1.43532  -0.86863
N     0.45079  -0.48949  -1.02011
C     0.94270  -1.23364  -2.19444
C    -0.92808  -0.10537  -0.89212
C    -1.46166   0.75246  -1.89169
C    -0.55903   1.25295  -3.01412
O    -2.65413   1.16017  -1.89716
C    -1.73795  -0.78641   0.11877
C    -1.34894  -2.05666   0.60573
C    -2.05698  -2.69699   1.62077
C    -3.19226  -2.09847   2.18067
C    -3.61418  -0.85790   1.68934
C    -2.90700  -0.21097   0.67549
H     0.42324   1.32282   2.98997
H    -0.94870   0.23686   2.58664
H    -1.22101   1.73579   3.51139
H    -1.79968   2.51208   1.44585
H    -1.40803   3.42654  -0.57990
H     0.07191   3.09921  -1.39468
H     1.68291   1.75725   1.19384
H     1.70127   2.01091  -0.43876
H     4.72244  -1.34639  -1.96298
H     5.05656  -2.44099  -0.56552
H     5.41318  -0.67399  -0.43897
H     1.63231  -0.64194  -2.81398
H     1.44166  -2.16207  -1.88159
H     0.07274  -1.50145  -2.80091
H     0.49688   1.36103  -2.72938
H    -0.60174   0.55719  -3.86781
H    -0.94799   2.22175  -3.35962
H    -0.47220  -2.54513   0.17586
H    -1.72140  -3.67484   1.97623
H    -3.74556  -2.59709   2.97994
H    -4.50304  -0.37935   2.10955
H    -3.24386   0.75610   0.31129
