29
Generated by autodE on: 2022-10-07. E = -691.651768 Ha
C    -1.17205   3.52651  -0.44803
O    -1.05416   2.13489  -0.15968
C     0.18621   1.58656  -0.32343
O     1.15117   2.29760  -0.64788
C     0.23407   0.18349  -0.10374
O     1.50626  -0.39252  -0.27013
C     2.58266  -0.01710   0.32329
C     3.81939  -0.67841  -0.14086
C     2.57824   0.97034   1.40732
C    -0.81251  -0.81900  -0.01678
C    -0.45938  -2.17852   0.19149
C    -1.42791  -3.17863   0.27061
C    -2.78753  -2.86990   0.16147
C    -3.15569  -1.53356  -0.03364
C    -2.19678  -0.52589  -0.12468
H    -2.22525   3.78306  -0.27714
H    -0.53148   4.12689   0.21579
H    -0.90272   3.74378  -1.49317
H     4.37013  -1.08722   0.72157
H     4.47668   0.08141  -0.60105
H     3.60047  -1.46380  -0.87497
H     1.63570   0.88610   1.97721
H     2.57819   1.98843   0.97606
H     3.46010   0.84121   2.04725
H     0.59077  -2.45059   0.30047
H    -1.11231  -4.21331   0.42960
H    -3.54552  -3.65326   0.23177
H    -4.21236  -1.26665  -0.12224
H    -2.51554   0.50103  -0.28336
