10
Generated by autodE on: 2022-10-07. E = -455.046572 Ha
O    -1.37435  -2.44344  -0.38453
C    -0.79281  -1.32108  -0.36195
O    -0.39889  -0.68056  -1.37717
C    -0.56148  -0.72105   1.00489
C     0.12142   0.40684   1.26325
C     0.80364   1.32775   0.26841
O     0.13340   2.30978  -0.14301
O     2.01038   1.08078   0.01099
H    -0.98923  -1.29220   1.83705
H     0.22246   0.72593   2.30999
