20
Generated by autodE on: 2022-06-18. E = -457.715332 Ha
C    -3.05294  -0.84347   0.23061
N    -1.82902  -0.09416  -0.00193
C    -1.89019   1.29699  -0.15279
C    -0.79352   2.06378  -0.25929
C     0.60830   1.50681  -0.22604
C     0.57633   0.00137  -0.01985
C     1.81717  -0.78466   0.07529
N     2.97563  -0.08622  -0.02954
O     1.83692  -2.02080   0.24485
C    -0.60048  -0.67856   0.07998
H    -3.80710  -0.59166  -0.53038
H    -3.47919  -0.62713   1.22528
H    -2.84039  -1.91819   0.16724
H    -2.89954   1.71156  -0.18062
H    -0.92307   3.14149  -0.38214
H     1.19489   2.00348   0.57360
H     1.14435   1.76711  -1.16223
H     3.85347  -0.59071   0.02835
H     3.00167   0.91475  -0.17646
H    -0.59292  -1.75930   0.23039
