19
Generated by autodE on: 2022-06-18. E = -473.742118 Ha
C    -3.80342  -0.23772  -0.52730
N    -2.55027  -0.68329   0.04730
C    -1.38711  -0.06907  -0.24327
O    -1.33102   0.90189  -1.02689
C    -0.15870  -0.57679   0.39592
C    -0.02006  -1.73700   1.31295
N     0.91148   0.13325   0.07265
C     2.19555  -0.01003   0.45835
C     3.17143   0.86924  -0.02032
N     4.00540   1.59656  -0.40996
H    -4.60657  -0.90025  -0.18296
H    -3.76822  -0.26556  -1.62778
H    -4.04234   0.79501  -0.22476
H    -2.56274  -1.44447   0.71548
H     0.72516  -2.45186   0.91929
H     0.34391  -1.41402   2.30545
H    -0.96198  -2.27970   1.45526
H     0.67896   0.90181  -0.57552
H     2.46189  -0.81113   1.14532
