19
Generated by autodE on: 2022-07-27. E = -473.733871 Ha
C     2.77206   1.64633   1.81411
N     2.17611   1.20753   0.56983
C     0.98001   0.56960   0.55461
O     0.36568   0.33751   1.61548
C     0.46889   0.18035  -0.76527
C     1.21613   0.47340  -2.02990
N    -0.70019  -0.45183  -0.86574
C    -1.61901  -0.86218   0.03928
C    -2.77225  -1.51585  -0.40487
N    -3.75004  -2.06731  -0.74718
H     2.12084   2.36131   2.34304
H     3.72826   2.13704   1.59528
H     2.95703   0.79855   2.49365
H     2.66585   1.39669  -0.29626
H     2.21578   0.00623  -2.02584
H     0.67233   0.09290  -2.90666
H     1.36344   1.55823  -2.16972
H    -0.95193  -0.66912  -1.83477
H    -1.43640  -0.67129   1.09140
