48
Generated by autodE on: 2022-05-31. E = -1115.848286 Ha
C    -2.08449  -0.03041  -2.80416
C    -1.28651   0.68885  -1.75219
O    -0.78689   1.78237  -1.95016
C    -1.17356  -0.01557  -0.37419
C    -2.50279   0.23415   0.33116
C    -2.98377   1.54496   0.47330
C    -4.17519   1.78928   1.15925
C    -4.90142   0.72672   1.70749
C    -4.42618  -0.57975   1.56464
C    -3.23258  -0.82675   0.87921
O    -0.99265  -1.40890  -0.56891
C     0.40527  -1.73822  -0.62272
C     0.85758  -1.93689  -2.06140
C     1.15492  -0.62320   0.18277
C     2.44038  -0.17116  -0.48192
C     3.61959  -0.90983  -0.28042
C     4.81437  -0.54713  -0.90617
C     4.85444   0.56366  -1.75478
C     3.68758   1.30106  -1.97042
C     2.49314   0.93672  -1.34029
C     1.38776  -1.10853   1.66936
C     2.09324   0.02159   2.40697
C     1.15083   0.95388   2.59233
C    -0.11340   0.37526   1.97702
O     0.06044  -1.03524   2.20125
C     0.05466   0.46555   0.42913
H    -2.43706   0.68950  -3.55458
H    -1.43698  -0.76864  -3.30228
H    -2.92795  -0.58051  -2.36474
H    -2.42035   2.38074   0.05345
H    -4.53713   2.81458   1.26603
H    -5.83428   0.91752   2.24321
H    -4.98634  -1.41569   1.99070
H    -2.85791  -1.84406   0.77412
H     0.50180  -2.69710  -0.09077
H     1.88005  -2.33911  -2.08888
H     0.18973  -2.65882  -2.55522
H     0.85087  -0.99828  -2.63349
H     3.60749  -1.78650   0.37017
H     5.71778  -1.13603  -0.72951
H     5.78786   0.85022  -2.24507
H     3.70233   2.16853  -2.63492
H     1.59215   1.51846  -1.53459
H     1.79664  -2.12018   1.76364
H     3.15893   0.06914   2.62666
H     1.24906   1.96158   2.99656
H    -1.07056   0.72626   2.37254
H     0.33481   1.47542   0.12024
