25
Generated by autodE on: 2022-05-31. E = -577.048270 Ha
C     3.54993  -1.58764   0.67605
C     2.79442  -0.41123   0.21865
O     1.52214  -0.48887   0.19449
C     0.52691   0.40999  -0.13998
C     0.88680   1.74394  -0.45441
C    -0.18998   2.79376  -0.65088
O     2.09037   2.10959  -0.54193
C    -0.79693  -0.20660  -0.01012
C    -1.00711  -1.25743   0.91327
C    -2.25412  -1.86722   1.04250
C    -3.33651  -1.44696   0.26096
C    -3.14374  -0.41685  -0.66421
C    -1.89345   0.18814  -0.80798
H     2.88457  -2.41957   0.94322
H     4.17298  -1.30932   1.54541
H     4.25415  -1.90545  -0.11373
H     3.25445   0.52594  -0.09927
H    -1.09138   2.61549  -0.04950
H     0.24584   3.76713  -0.38317
H    -0.49227   2.84421  -1.70995
H    -0.17961  -1.59063   1.54172
H    -2.38400  -2.67355   1.76900
H    -4.31458  -1.92176   0.36702
H    -3.97142  -0.08857  -1.29812
H    -1.76441   0.95442  -1.57123
