25
Generated by autodE on: 2022-07-27. E = -577.042743 Ha
C     3.06153  -1.28085  -0.69725
C     1.84603  -2.05190  -0.44079
O     0.66869  -1.57690  -0.30184
C     0.27058  -0.25036  -0.52345
C     0.54811   0.36650  -1.77637
C     1.09217  -0.45328  -2.93456
O     0.25970   1.56733  -2.00882
C    -0.59219   0.22898   0.54577
C    -1.30943   1.44864   0.45539
C    -2.13680   1.87199   1.49433
C    -2.28473   1.10683   2.65713
C    -1.58013  -0.09659   2.76506
C    -0.74330  -0.52712   1.73586
H     3.87765  -1.72833  -0.10748
H     3.37087  -1.35035  -1.75608
H     2.91476  -0.21578  -0.45715
H     1.88175  -3.13363  -0.27144
H     2.13822  -0.17575  -3.14422
H     1.03976  -1.54303  -2.80486
H     0.50188  -0.17421  -3.82027
H    -1.20007   2.05364  -0.44096
H    -2.67653   2.81725   1.39138
H    -2.93312   1.44639   3.46807
H    -1.67387  -0.70701   3.66711
H    -0.19341  -1.46107   1.85582
