39
Generated by autodE on: 2022-06-18. E = -881.817706 Ha
C    -2.96157  -2.57401   0.26911
C    -2.05960  -1.35606   0.29396
C    -0.58977  -1.55388   0.71972
C     0.00114  -2.90969   0.34329
C     0.08666  -0.37236  -0.02707
C    -0.22794   1.00577   0.56814
C    -0.41777   1.21024   1.94121
C    -0.66100   2.49382   2.44111
C    -0.71995   3.58809   1.57499
C    -0.52914   3.39187   0.20323
C    -0.28118   2.11159  -0.29420
C     1.58554  -0.52788  -0.22254
C     2.42903  -0.43976   0.89560
C     3.80808  -0.59952   0.75597
C     4.36473  -0.84081  -0.50541
C     3.52939  -0.92481  -1.62109
C     2.14496  -0.77362  -1.48213
O    -0.53618  -0.47651  -1.33207
N    -1.91259  -0.76811  -1.08181
C    -2.71267   0.24141  -1.43236
N    -3.46927   1.05163  -1.80146
H    -2.58782  -3.34572  -0.41786
H    -3.97437  -2.28446  -0.05034
H    -3.03500  -3.00238   1.28025
H    -2.50566  -0.58625   0.94008
H    -0.51512  -1.42069   1.80524
H     1.04268  -2.98307   0.68526
H    -0.56329  -3.72196   0.82248
H    -0.01289  -3.07435  -0.74441
H    -0.37628   0.37087   2.63625
H    -0.80813   2.63448   3.51451
H    -0.91353   4.58966   1.96610
H    -0.57239   4.24040  -0.48371
H    -0.13196   1.96330  -1.36479
H     2.00438  -0.24716   1.88273
H     4.45179  -0.53343   1.63627
H     5.44491  -0.96172  -0.61570
H     3.95325  -1.11164  -2.61073
H     1.50116  -0.84846  -2.35787
