12
Generated by autodE on: 2022-06-18. E = -157.299003 Ha
C    -1.54491  -0.63467   0.18392
C    -0.70976   0.52160  -0.27898
C     0.62767   0.63296  -0.24214
C     1.61637  -0.37133   0.27016
H    -2.25936  -0.31476   0.96296
H    -2.15520  -1.03434  -0.64528
H    -0.94633  -1.46137   0.59257
H    -1.27319   1.36732  -0.69341
H     1.06533   1.56220  -0.62877
H     2.22438   0.05806   1.08607
H     2.32904  -0.65888  -0.52306
H     1.14202  -1.28845   0.64767
