27
Generated by autodE on: 2022-06-18. E = -724.454494 Ha
N    -1.47090   4.55672  -0.10746
C    -1.41778   3.37848  -0.12592
N    -1.51802   2.06810  -0.17531
O    -0.20162   1.56109   0.04128
C     0.02658   0.29454   0.02742
C     1.44270  -0.04770   0.09199
C     1.85525  -1.30687   0.57822
C     3.21192  -1.61309   0.65664
C     4.16825  -0.67620   0.25207
C     3.76749   0.57812  -0.22733
C     2.41647   0.89656  -0.30426
C    -1.03376  -0.70874  -0.05222
C    -2.21108  -0.59367   0.71585
C    -3.17445  -1.59634   0.66037
C    -2.99611  -2.70083  -0.18219
C    -1.83888  -2.81355  -0.95849
C    -0.85208  -1.83220  -0.88478
H     1.11537  -2.03089   0.91926
H     3.52496  -2.58550   1.04177
H     5.23088  -0.92218   0.31098
H     4.51540   1.30602  -0.54806
H     2.09965   1.86654  -0.68886
H    -2.35229   0.26964   1.36362
H    -4.07474  -1.51497   1.27281
H    -3.76413  -3.47604  -0.23312
H    -1.70189  -3.67041  -1.62104
H     0.05049  -1.91846  -1.49087
