27
Generated by autodE on: 2022-07-27. E = -724.454495 Ha
N    -3.39319  -1.99059  -2.73163
C    -2.78907  -1.29042  -1.99928
N    -2.25234  -0.42546  -1.16666
O    -0.89619  -0.83405  -0.99043
C    -0.11071  -0.18743  -0.20229
C    -0.47962   1.07363   0.43821
C    -0.12332   1.28639   1.78593
C    -0.44264   2.49041   2.41097
C    -1.08863   3.50107   1.69273
C    -1.42933   3.30268   0.34880
C    -1.14548   2.09179  -0.27551
C     1.18023  -0.83501   0.00027
C     2.30760  -0.08207   0.39292
C     3.53972  -0.70947   0.56252
C     3.66304  -2.08578   0.34656
C     2.54996  -2.83988  -0.04853
C     1.31677  -2.22313  -0.22621
H     0.37938   0.49723   2.34596
H    -0.18280   2.64098   3.46063
H    -1.32918   4.44813   2.18118
H    -1.92580   4.09657  -0.21287
H    -1.41804   1.93360  -1.31731
H     2.22306   0.99487   0.53785
H     4.41001  -0.12020   0.85798
H     4.63003  -2.57452   0.48538
H     2.64722  -3.91511  -0.21160
H     0.44472  -2.80826  -0.52007
