39
Generated by autodE on: 2022-06-18. E = -881.744209 Ha. Imaginary frequency = -299.0 cm-1
C    -2.87686  -2.46969   0.17162
C    -1.97369  -1.47285   0.81876
C    -0.61872  -1.66680   1.01429
C     0.09611  -2.86858   0.46508
C     0.16326   0.09278  -0.15584
C    -0.30514   1.28824   0.61644
C    -0.31387   1.38144   2.01535
C    -0.68299   2.57391   2.64386
C    -1.04231   3.69034   1.88589
C    -1.02792   3.60909   0.48956
C    -0.66506   2.41970  -0.14017
C     1.59975  -0.23388  -0.22737
C     2.48834   0.19210   0.77820
C     3.83662  -0.15928   0.72302
C     4.32311  -0.92730  -0.33959
C     3.44963  -1.34493  -1.35009
C     2.09910  -1.00880  -1.29482
O    -0.47925  -0.19948  -1.27768
N    -1.87832  -0.07641  -1.18438
C    -2.40140  -0.66421  -2.24048
N    -2.99840  -1.16456  -3.12350
H    -3.13743  -3.24757   0.91451
H    -2.40284  -2.98442  -0.67664
H    -3.81650  -2.01460  -0.17077
H    -2.45131  -0.65643   1.36642
H    -0.16572  -1.18281   1.87932
H    -0.30514  -3.79591   0.91032
H    -0.03209  -2.95445  -0.62585
H     1.17161  -2.83301   0.68296
H    -0.03687   0.52732   2.63206
H    -0.68884   2.62482   3.73483
H    -1.33171   4.62060   2.38001
H    -1.30056   4.47727  -0.11483
H    -0.65336   2.36447  -1.22932
H     2.12729   0.80005   1.60674
H     4.51263   0.17557   1.51272
H     5.38077  -1.19694  -0.38257
H     3.82337  -1.94070  -2.18576
H     1.42313  -1.34307  -2.08100
