48
Generated by autodE on: 2022-06-04. E = -1352.609549 Ha
C     4.64363  -1.04975   1.90136
N     3.47094  -1.07243   1.04704
C     3.00536   0.03477   0.46970
O     3.53344   1.14311   0.52309
C     1.67019  -0.14705  -0.30411
C     1.85684   0.46935  -1.64173
N     2.04202   0.79832  -2.73772
O     1.42435  -1.52389  -0.49673
C     0.02901  -1.76829  -0.65362
C    -0.23128  -3.22690  -0.28642
C    -0.29980  -1.62935  -2.09932
N    -0.50411  -1.61830  -3.24036
C    -0.71105  -0.67909   0.23325
C    -2.01098  -0.24640  -0.41625
C    -3.22116  -0.83875  -0.02569
C    -4.42134  -0.49989  -0.65870
C    -4.42980   0.43382  -1.69637
C    -3.22652   1.01783  -2.10585
C    -2.03102   0.67550  -1.47552
C    -0.88868  -1.24033   1.70379
C    -1.53810  -0.17362   2.56389
C    -0.57575   0.72376   2.79735
C     0.64521   0.19285   2.06883
O     0.46792  -1.21674   2.16519
C     0.43056   0.40558   0.49576
C     0.18902   1.87855   0.19424
O     0.99896   2.58486  -0.37111
O    -0.96670   2.32541   0.65725
C    -1.28781   3.70235   0.40753
H     5.46390  -0.50978   1.40780
H     4.42978  -0.55068   2.86085
H     4.95946  -2.08096   2.09925
H     2.90248  -1.91189   0.98189
H     0.15728  -3.43465   0.71735
H     0.28363  -3.87962  -1.00437
H    -1.30887  -3.43739  -0.32429
H    -3.24219  -1.57973   0.77386
H    -5.35160  -0.97270  -0.33581
H    -5.36720   0.70151  -2.18932
H    -3.21592   1.74147  -2.92394
H    -1.10277   1.12426  -1.83263
H    -1.31462  -2.24316   1.76379
H    -2.58800  -0.14529   2.84923
H    -0.62982   1.67660   3.31994
H     1.62266   0.51879   2.43492
H    -0.53173   4.35951   0.85874
H    -1.33999   3.88473  -0.67523
H    -2.26693   3.86742   0.87030
