19
Generated by autodE on: 2022-07-27. E = -585.837497 Ha
C     2.65879   0.12432   2.83808
N     1.63285  -0.09651   1.84038
C     1.31231   0.81256   0.89680
O     1.85782   1.92021   0.77404
C     0.23645   0.44092  -0.03783
C    -0.14967   1.33019  -1.05633
N    -0.44758   2.08732  -1.89489
O    -0.32547  -0.75153   0.12495
C    -1.26508  -1.42941  -0.44828
C    -1.55920  -2.78298   0.08606
C    -1.99159  -0.90298  -1.54765
N    -2.64530  -0.55641  -2.44875
H     3.11901   1.10379   2.66443
H     2.23374   0.10869   3.85432
H     3.43978  -0.64985   2.77793
H     1.12119  -0.97289   1.86147
H    -0.90499  -2.98953   0.94317
H    -1.39700  -3.54610  -0.69378
H    -2.61411  -2.85136   0.39980
