29
Generated by autodE on: 2022-06-04. E = -766.672175 Ha
C    -3.40088  -2.63753  -0.42510
O    -2.81479  -1.34890  -0.21169
C    -1.51863  -1.32645   0.16307
O    -0.87079  -2.35011   0.31851
C    -1.06246   0.05024   0.32981
C     0.17733   0.60964   0.28279
C     1.53389   0.09332   0.15667
C     2.52333   0.91408  -0.43012
C     3.83103   0.45621  -0.58405
C     4.18614  -0.81931  -0.13327
C     3.22135  -1.63511   0.46815
C     1.90807  -1.18980   0.60973
C    -0.12011   2.14189   0.24628
C    -0.73380   2.44536  -1.13580
C    -1.94774   1.88794  -1.09441
C    -2.04208   1.25290   0.30905
O    -1.28235   2.19454   1.08130
H    -3.36013  -3.23906   0.49496
H    -2.87776  -3.17325  -1.23089
H    -4.44333  -2.45287  -0.71001
H     2.26508   1.91290  -0.78601
H     4.57816   1.10069  -1.05267
H     5.21332  -1.17427  -0.24486
H     3.49558  -2.62822   0.83168
H     1.15886  -1.82837   1.07215
H     0.67825   2.79728   0.60711
H    -0.21824   2.94782  -1.95323
H    -2.70879   1.80837  -1.86981
H    -3.03849   1.07775   0.72457
