13
Generated by autodE on: 2022-05-30. E = -5454.682431 Ha
Br    1.59371  -1.35854   0.40424
C     0.01373  -0.72378  -0.35576
C    -0.50758   0.50888  -0.36576
Br    0.13207   2.09461   0.37832
C    -1.92234   0.33418  -0.97621
C    -2.76548  -0.44288   0.06330
C    -2.24524  -1.67287   0.07473
C    -1.09404  -1.62580  -0.95888
O    -1.64310  -0.71130  -1.92320
H    -2.36627   1.21878  -1.44437
H    -3.56347  -0.01291   0.66718
H    -2.49715  -2.53543   0.69025
H    -0.76606  -2.56795  -1.41028
