15
Generated by autodE on: 2022-05-30. E = -396.252899 Ha
C     3.48473  -0.12046   1.22763
C     2.12782   0.12193   0.77956
N     1.04476   0.33670   0.42408
N    -0.13849   0.65844   0.04825
C    -0.88362  -0.43297  -0.37709
O    -0.47196  -1.60598  -0.40359
N    -2.13884  -0.09828  -0.77201
C    -2.68524   1.24274  -0.78778
H     3.59697   0.16812   2.28435
H     4.19801   0.45231   0.61460
H     3.71260  -1.19308   1.12685
H    -2.70753  -0.86787  -1.10486
H    -2.69061   1.69667   0.21603
H    -2.12071   1.91320  -1.45616
H    -3.72143   1.19315  -1.14716
