46
Generated by autodE on: 2022-06-22. E = -1072.215734 Ha
C     2.68254   3.37202   0.50263
N     1.74935   2.26441   0.46919
C     2.10089   1.03896   0.06332
O     3.25951   0.70222  -0.20823
C     0.95519   0.03421  -0.13265
C     1.50443  -1.35782   0.25417
O     1.52220  -2.33440  -0.46616
O     1.93180  -1.37399   1.51622
C     2.35302  -2.64067   2.04269
C     0.50582   0.03423  -1.62144
C     0.66231   1.37138  -2.34350
C    -0.94339  -0.50573  -1.54423
C    -1.84387  -0.15444  -2.71910
C    -1.45918  -0.08308  -0.09944
C    -1.99967  -1.41314   0.50281
C    -3.41437  -1.86152   0.28167
O    -1.21026  -2.12549   1.09996
C    -2.51195   1.04462  -0.18714
C    -2.08369   2.45621   0.10936
O    -3.65373   0.80311  -0.53762
N    -0.26164   0.37288   0.59299
C    -0.28437   0.42413   2.04884
H     2.84787   3.79459  -0.50340
H     3.65108   3.03392   0.89581
H     2.28750   4.16122   1.15519
H     0.75346   2.44094   0.56922
H     3.20383  -3.03233   1.46719
H     1.52165  -3.35927   2.00730
H     2.65005  -2.45349   3.08089
H     1.11705  -0.70387  -2.15560
H     1.71882   1.67550  -2.37494
H     0.32617   1.27360  -3.38511
H     0.08471   2.18039  -1.87863
H    -0.85314  -1.60006  -1.51719
H    -2.83182  -0.62290  -2.61012
H    -1.99511   0.92821  -2.83062
H    -1.39226  -0.53252  -3.64908
H    -4.11394  -1.18946   0.79894
H    -3.51977  -2.88400   0.66802
H    -3.67291  -1.82674  -0.78618
H    -1.70097   2.55517   1.13485
H    -2.94385   3.12280  -0.03343
H    -1.26875   2.75441  -0.56554
H    -0.17628  -0.55538   2.53648
H     0.51580   1.08047   2.41578
H    -1.24248   0.85396   2.37678
