12
Generated by autodE on: 2022-06-22. E = -157.299003 Ha
C     1.59282  -0.53375   0.03324
C     0.65661   0.60729  -0.23170
C    -0.68188   0.61011  -0.12735
C    -1.57075  -0.52698   0.27961
H     2.31907  -0.26971   0.82230
H     1.07444  -1.45220   0.34377
H     2.18990  -0.76765  -0.86592
H     1.13824   1.54182  -0.54659
H    -1.20259   1.54668  -0.36437
H    -1.01459  -1.44652   0.51153
H    -2.16883  -0.25806   1.16825
H    -2.29748  -0.76112  -0.51841
