34
Generated by autodE on: 2022-06-22. E = -914.855422 Ha
C     3.80967   1.23727   1.80132
N     2.52823   0.70328   1.37340
C     2.00149   1.00438   0.18261
O     2.49730   1.77411  -0.64188
C     0.69370   0.31188  -0.13674
C     0.78297  -0.97411  -0.90124
O    -0.02200  -1.34720  -1.72531
O     1.92522  -1.59211  -0.62121
C     2.17476  -2.83158  -1.30536
N    -0.44663   0.92380   0.05812
C    -0.43217   2.33928   0.49058
C    -1.65362   0.19480   0.14604
C    -1.55853  -1.01620   0.93398
C    -2.81813  -1.69422   1.41453
O    -0.45758  -1.50881   1.25173
C    -2.85353   0.69829  -0.48267
C    -2.72691   1.81714  -1.50330
O    -3.97783   0.21586  -0.27350
H     3.93008   1.05214   2.87535
H     3.84966   2.31959   1.61502
H     4.64318   0.76097   1.25975
H     2.06679  -0.00793   1.93467
H     2.20825  -2.66646  -2.39139
H     3.14551  -3.18446  -0.94073
H     1.38555  -3.55756  -1.06414
H     0.02160   2.95843  -0.29163
H     0.15248   2.42402   1.41615
H    -1.45587   2.65770   0.69796
H    -2.53292  -2.49056   2.11484
H    -3.51457  -0.99048   1.88794
H    -3.34842  -2.13446   0.55590
H    -3.47072   1.63680  -2.29229
H    -1.72917   1.89790  -1.95393
H    -2.97691   2.78127  -1.03124
