46
Generated by autodE on: 2022-06-22. E = -1072.121921 Ha. Imaginary frequency = -221.8 cm-1
C     3.03477   3.20023   0.14943
N     1.90084   2.31501   0.33755
C     2.06770   0.98094   0.33139
O     3.18765   0.45772   0.26346
C     0.84747   0.08949   0.28161
C     1.34039  -1.36680   0.30949
O     1.54761  -2.10486  -0.62566
O     1.70750  -1.62540   1.56697
C     2.24986  -2.92937   1.81486
C     0.48252   0.23596  -2.01624
C     0.69294   1.65821  -2.45626
C    -0.73858  -0.39672  -2.12875
C    -1.94822   0.21161  -2.75745
C    -1.57981  -0.10628   0.44827
C    -1.74452  -1.54753   0.47215
C    -3.02790  -2.20496   0.02341
O    -0.82376  -2.28341   0.86681
C    -2.68861   0.80822   0.18504
C    -2.43399   2.29032  -0.01847
O    -3.84952   0.40422   0.03093
N    -0.34268   0.46216   0.81522
C    -0.37138   1.47838   1.91015
H     3.48277   3.07305  -0.85078
H     3.81177   2.99517   0.89947
H     2.69514   4.23716   0.26016
H     0.97614   2.69929   0.18158
H     3.16463  -3.08385   1.22451
H     1.50893  -3.69999   1.55784
H     2.47885  -2.96357   2.88621
H     1.35744  -0.41393  -1.99220
H     1.72715   1.98663  -2.29136
H     0.48781   1.75045  -3.53744
H     0.01689   2.36121  -1.94599
H    -0.75522  -1.47784  -1.96808
H    -2.88481  -0.21647  -2.37522
H    -1.98343   1.30298  -2.64510
H    -1.92204  -0.00238  -3.84358
H    -3.85202  -1.96672   0.71011
H    -2.85547  -3.29002   0.01255
H    -3.33940  -1.86338  -0.97310
H    -2.63217   2.83522   0.91787
H    -3.15877   2.64552  -0.76360
H    -1.41726   2.52538  -0.35413
H    -1.25419   1.27060   2.52269
H     0.51778   1.34431   2.53508
H    -0.42281   2.51469   1.56593
