37
Generated by autodE on: 2022-06-17. E = -784.760078 Ha
C    -3.35461  -3.33088   0.64124
N    -2.92065  -1.96852   0.41219
C    -1.89959  -1.67650  -0.40502
O    -1.27331  -2.52746  -1.04756
C    -1.55583  -0.20826  -0.49608
N    -2.07011   0.62934   0.32195
C    -1.54145   1.97250   0.02557
C    -0.77612   2.46055   1.17963
N    -0.14868   2.84134   2.07837
C    -0.70446   1.85464  -1.27410
C    -0.54414   0.32712  -1.51092
C    -0.90994  -0.05109  -2.95460
C     0.81935  -0.23831  -1.14555
C     1.65941   0.26917  -0.22205
C     2.94027  -0.32267   0.12118
C     3.81051   0.12771   1.05764
C     3.58186   1.33847   1.91921
C     5.11141  -0.58367   1.30372
H    -2.58266  -3.91796   1.16569
H    -3.57181  -3.83572  -0.31245
H    -4.26493  -3.31778   1.25235
H    -3.33761  -1.20142   0.93110
H    -2.38648   2.66736  -0.09874
H    -1.28027   2.29656  -2.09680
H     0.25476   2.38125  -1.21508
H    -1.93770   0.26377  -3.19139
H    -0.83125  -1.13476  -3.11117
H    -0.22394   0.45393  -3.65231
H     1.09245  -1.16615  -1.65805
H     1.37749   1.18013   0.31137
H     3.21573  -1.22269  -0.44139
H     3.67953   1.06850   2.98531
H     2.60030   1.80899   1.77805
H     4.35986   2.09810   1.72475
H     5.24256  -1.45165   0.64107
H     5.17656  -0.92999   2.35079
H     5.96518   0.10167   1.15534
