23
Generated by autodE on: 2022-06-17. E = -351.521382 Ha
C     3.53299  -0.58547   1.21354
C     2.51452   0.05657   0.60004
C     2.72536   1.37966  -0.09070
C     1.17661  -0.53175   0.59783
C     0.07534   0.00893   0.01834
C    -1.23035  -0.61816   0.04518
C    -2.37350  -0.14671  -0.51392
C    -3.65961  -0.91506  -0.39913
C    -2.47420   1.14217  -1.27920
H     4.54377  -0.16842   1.22998
H     3.37678  -1.54597   1.71431
H     2.46000   1.31689  -1.15917
H     2.08404   2.16283   0.34673
H     3.77171   1.70705  -0.01330
H     1.07581  -1.49376   1.11464
H     0.16690   0.96789  -0.49892
H    -1.28567  -1.57516   0.57806
H    -3.53670  -1.84967   0.16761
H    -4.43682  -0.30553   0.09613
H    -4.05839  -1.16267  -1.39938
H    -3.21295   1.81201  -0.80456
H    -2.84746   0.95116  -2.30088
H    -1.52274   1.68355  -1.35877
