37
Generated by autodE on: 2022-06-17. E = -784.651420 Ha. Imaginary frequency = -429.5 cm-1
C    -2.93885  -3.72177   0.00218
N    -2.79675  -2.28991  -0.19490
C    -1.74902  -1.61775   0.30306
O    -0.82071  -2.12102   0.94156
C    -1.68870  -0.18128  -0.02447
N    -1.89487   0.88401   0.50665
C    -1.71874   2.19602   0.35146
C    -0.65697   2.82124   1.05515
N     0.24175   3.34219   1.58705
C    -0.64527   1.88381  -1.80022
C    -0.50911   0.51128  -1.92654
C    -1.37482  -0.23935  -2.91985
C     0.68941  -0.19399  -1.43302
C     1.56338   0.26372  -0.50441
C     2.69754  -0.49598  -0.02247
C     3.57709  -0.12239   0.94103
C     3.51409   1.18098   1.68791
C     4.71337  -1.02244   1.33844
H    -2.06523  -4.26094  -0.39565
H    -3.83864  -4.06051  -0.52437
H    -3.03691  -3.96783   1.07097
H    -3.48332  -1.78602  -0.74964
H    -2.59070   2.80407   0.09415
H    -1.44177   2.40213  -2.33842
H     0.17742   2.49991  -1.43664
H    -2.35718   0.24180  -3.03655
H    -1.53638  -1.28653  -2.62597
H    -0.88909  -0.25337  -3.91202
H     0.83932  -1.20481  -1.83076
H     1.39446   1.25088  -0.06610
H     2.84490  -1.47764  -0.48945
H     3.47112   0.99456   2.77575
H     2.65423   1.80841   1.41969
H     4.43494   1.76691   1.51626
H     4.72272  -1.95936   0.76203
H     4.65815  -1.27491   2.41292
H     5.68500  -0.51575   1.19489
