45
Generated by autodE on: 2022-05-31. E = -1109.849172 Ha
C     3.11040   1.99683  -2.37193
O     2.45413   1.33739  -1.27589
C     1.30105   0.73522  -1.53933
O     0.77963   0.72288  -2.63380
C     0.73603   0.01759  -0.29114
C     1.64503  -1.17890  -0.02266
C     2.16141  -1.43368   1.25197
C     2.94645  -2.56841   1.48147
C     3.22450  -3.45583   0.43910
C     2.71378  -3.20216  -0.83861
C     1.92855  -2.07121  -1.06803
N     0.78405   0.99299   0.81535
C    -0.40912   1.33362   1.11828
C    -0.64409   2.28285   2.17729
N    -0.82741   3.02548   3.05081
C    -1.54851   0.68256   0.35828
C    -2.38302   1.77327  -0.32809
C    -2.52493   1.76012  -1.81794
O    -2.90615   2.62338   0.37294
C    -2.43417  -0.20756   1.29400
C    -3.52429  -0.87401   0.42954
C    -2.71439  -1.89445  -0.42583
C    -1.26273  -1.70530   0.07124
C    -1.49045  -1.39061   1.56193
C    -0.76523  -0.35890  -0.50341
H     2.46516   2.78502  -2.78493
H     4.02565   2.43178  -1.95522
H     3.35563   1.27027  -3.15965
H     1.95002  -0.74348   2.06871
H     3.34143  -2.75655   2.48262
H     3.83763  -4.34177   0.61976
H     2.92600  -3.88890  -1.66129
H     1.52661  -1.88588  -2.06678
H    -1.53127   1.85462  -2.28394
H    -2.93833   0.79506  -2.15077
H    -3.17604   2.58351  -2.13801
H    -2.81100   0.34752   2.16267
H    -4.24481  -1.38433   1.08478
H    -4.09313  -0.15402  -0.17570
H    -3.05129  -2.92395  -0.23662
H    -2.80294  -1.70721  -1.50608
H    -0.60397  -2.55072  -0.15560
H    -1.99492  -2.20913   2.09665
H    -0.57763  -1.12453   2.11228
H    -0.99043  -0.29615  -1.57019
