22
Generated by autodE on: 2022-05-31. E = -425.585587 Ha
C     2.92064   0.04532  -0.59591
C     1.79850   0.27674   0.38614
O     1.99244   0.86635   1.45028
C     0.45886  -0.21559   0.04503
C     0.01942  -0.68541  -1.14695
C    -1.47658  -0.86691  -1.03907
C    -2.06827   0.58588  -0.99191
C    -1.57750   1.12056   0.38367
C    -0.75793  -0.08136   0.95031
C    -1.60539  -1.26883   0.44855
H     3.86547   0.41031  -0.17229
H     2.71320   0.57725  -1.53827
H     3.00877  -1.02448  -0.84045
H     0.60137  -0.79953  -2.06349
H    -1.94026  -1.51773  -1.79066
H    -3.16640   0.53600  -1.03731
H    -1.72403   1.19392  -1.84062
H    -0.95966   2.02604   0.30047
H    -2.42429   1.34933   1.04792
H    -0.53912  -0.02205   2.02295
H    -2.64436  -1.25122   0.81230
H    -1.15041  -2.24607   0.66922
