23
Generated by autodE on: 2022-05-31. E = -684.164947 Ha
C     3.97751  -0.37390   0.07020
O     2.63527   0.10541   0.24013
C     1.65425  -0.69795  -0.18013
O     1.84460  -1.78069  -0.69776
C     0.31137  -0.10147   0.07776
N     0.30610   1.01116   0.73049
C     0.29041   1.97392   1.46199
C     0.33097   3.35305   1.31719
N     0.35489   4.52240   1.34495
C    -0.96848  -0.71602  -0.32823
C    -2.16918  -0.25356   0.24913
C    -3.39362  -0.80714  -0.11830
C    -3.44789  -1.82932  -1.07239
C    -2.26376  -2.28934  -1.65449
C    -1.03195  -1.74209  -1.29120
H     4.12349  -1.31170   0.62523
H     4.19216  -0.54054  -0.99519
H     4.62856   0.41102   0.47130
H    -2.14465   0.54243   0.99573
H    -4.31157  -0.43789   0.34451
H    -4.40834  -2.26208  -1.36118
H    -2.29463  -3.08289  -2.40474
H    -0.11934  -2.10891  -1.75426
