44
Generated by autodE on: 2022-05-30. E = -976.605113 Ha
C     3.74396   1.75860   0.94124
N     2.72807   0.74223   1.12488
C     1.46445   1.05721   1.44538
O     1.10689   2.19946   1.75354
C     0.44030  -0.07117   1.42153
N     1.03154  -1.40228   1.37447
C     0.39157  -2.10848   0.52227
C     0.74251  -3.49044   0.30559
N     0.98824  -4.60728   0.10217
C    -0.73210  -1.47113  -0.26397
C    -0.56544  -1.75918  -1.76077
C    -2.12423  -1.94700   0.27588
C    -3.23752  -1.32890  -0.58710
C    -3.14017   0.18165  -0.22924
C    -2.05723   0.22659   0.88029
C    -2.28799  -1.13344   1.56736
C    -0.64254   0.03919   0.26379
C    -0.21273   1.09404  -0.74393
C     0.94178   0.90557  -1.52423
C     1.41805   1.90823  -2.37181
C     0.74988   3.13320  -2.45733
C    -0.38788   3.34405  -1.67475
C    -0.85697   2.33885  -0.82426
H     3.76747   2.44032   1.80335
H     3.54902   2.35814   0.03505
H     4.72399   1.27558   0.84273
H     2.91510  -0.20734   0.81966
H    -0.06430   0.02558   2.39445
H    -0.94871  -2.76624  -1.98667
H    -1.12149  -1.03617  -2.37057
H     0.48475  -1.72434  -2.07670
H    -2.17623  -3.04135   0.36734
H    -4.20590  -1.75091  -0.27975
H    -3.12342  -1.52583  -1.66032
H    -4.09315   0.56401   0.16491
H    -2.87884   0.79405  -1.10055
H    -2.11343   1.10930   1.53079
H    -1.56717  -1.38289   2.35729
H    -3.29939  -1.22270   1.99029
H     1.50038  -0.02676  -1.44972
H     2.31888   1.73023  -2.96400
H     1.11890   3.91940  -3.12020
H    -0.91232   4.30185  -1.71575
H    -1.72773   2.54526  -0.20281
