14
Generated by autodE on: 2022-05-30. E = -433.141306 Ha
C    -3.70242  -0.23069  -0.41519
N    -2.52636   0.60548  -0.27937
C    -1.32041   0.07984   0.00344
O    -1.11819  -1.12708   0.17077
C    -0.22340   1.08295   0.10692
N     0.95700   0.66775   0.34918
C     2.00282   0.15397   0.70718
C     3.08854  -0.34493  -0.01015
N     4.06313  -0.79556  -0.47345
H    -3.57268  -0.97108  -1.22056
H    -3.91184  -0.77850   0.51743
H    -4.56351   0.40473  -0.65356
H    -2.61326   1.60953  -0.40205
H    -0.39828   2.15650  -0.01629
