44
Generated by autodE on: 2022-05-30. E = -976.503638 Ha. Imaginary frequency = -290.2 cm-1
C     2.59673   3.12492   1.23352
N     1.74133   2.06167   1.71830
C     1.95204   0.77049   1.37655
O     2.94460   0.38599   0.74166
C     0.87597  -0.14556   1.78899
N     0.96844  -1.41649   1.51318
C     0.53408  -2.34148   0.84459
C     0.68620  -3.72763   0.84828
N     0.70108  -4.88866   0.71420
C    -0.99796  -1.36636  -0.59722
C    -0.43791  -2.01025  -1.83955
C    -2.28999  -1.91838   0.00695
C    -3.45051  -1.27619  -0.81853
C    -3.39624   0.21727  -0.38097
C    -2.19654   0.23633   0.62058
C    -2.39781  -1.12126   1.31399
C    -0.94953  -0.01666  -0.23089
C    -0.23233   1.07243  -0.89841
C     0.91889   0.85867  -1.69174
C     1.56928   1.91615  -2.32642
C     1.09828   3.22696  -2.19450
C    -0.02852   3.46374  -1.40058
C    -0.67831   2.40832  -0.75995
H     2.37402   4.04504   1.78861
H     3.65235   2.86221   1.39133
H     2.44714   3.31616   0.15791
H     0.83139   2.30999   2.09460
H     0.10357   0.16533   2.49807
H    -0.80722  -1.50194  -2.74765
H    -0.75025  -3.06411  -1.89128
H     0.65849  -1.99463  -1.88257
H    -2.33105  -3.01438   0.07099
H    -4.41052  -1.74166  -0.54805
H    -3.30673  -1.41436  -1.89993
H    -4.32412   0.52002   0.12832
H    -3.23517   0.90615  -1.22223
H    -2.16155   1.11964   1.26986
H    -3.38619  -1.21014   1.79018
H    -1.62463  -1.36870   2.05316
H     1.33596  -0.14140  -1.78131
H     2.46188   1.71354  -2.92379
H     1.60851   4.05318  -2.69474
H    -0.40557   4.48192  -1.27485
H    -1.55174   2.62491  -0.14455
