16
Generated by autodE on: 2022-05-29. E = -346.852369 Ha
C    -2.41938   0.34004   0.74632
C    -1.07186  -0.11951   0.32101
C    -0.26791  -1.09189   0.77019
C     1.04247  -0.93639  -0.03331
C     1.71238   0.38166   0.42626
C     0.91240   1.35002  -0.03090
C    -0.22560   0.60349  -0.76398
O     0.50776  -0.51224  -1.30666
H    -2.83357  -0.29180   1.54569
H    -3.12616   0.34506  -0.10150
H    -2.36929   1.38027   1.11610
H    -0.43106  -1.80094   1.58152
H     1.68545  -1.81851  -0.13031
H     2.60542   0.45028   1.04720
H     0.97035   2.42885   0.11116
H    -0.77775   1.15293  -1.53545
