23
Generated by autodE on: 2022-05-29. E = -737.702721 Ha
C     4.35991  -1.67033  -1.25511
N     2.95709  -1.45966  -0.95845
C     2.46518  -0.28990  -0.52536
O     3.10657   0.74354  -0.31677
C     1.00122  -0.27944  -0.28577
N     0.33283   0.76404   0.13350
C    -1.01189   0.46738   0.27848
C    -1.91033   1.57129   0.62847
O    -1.49520   2.73870   0.50291
N    -3.15480   1.30751   1.08385
C    -3.66908   0.05433   1.61059
C    -1.17979  -0.87796  -0.13804
O    -2.08645  -1.66846  -0.29549
O     0.18303  -1.30418  -0.46486
H     4.50663  -1.88068  -2.32604
H     4.92007  -0.76641  -0.99015
H     4.75209  -2.51952  -0.67564
H     2.30945  -2.23106  -1.09745
H     0.74278   1.68236   0.31465
H    -3.70368   2.14524   1.25717
H    -4.39568   0.28513   2.40128
H    -2.86130  -0.54207   2.05521
H    -4.17026  -0.55556   0.84513
