23
Generated by autodE on: 2022-07-26. E = -737.710287 Ha
C    -4.64779   1.64869  -0.03262
N    -3.31725   1.18829   0.31152
C    -2.42097   0.79672  -0.60694
O    -2.59792   0.75370  -1.82958
C    -1.10929   0.37768  -0.06098
N    -0.10052  -0.03583  -0.79168
C     0.97695  -0.35161   0.00789
C     2.23450  -0.83251  -0.55636
O     2.36336  -0.97691  -1.78479
N     3.20487  -1.10091   0.34649
C     4.52915  -1.55064  -0.02482
C     0.58827  -0.10650   1.34519
O     1.11765  -0.20146   2.44875
O    -0.77848   0.36521   1.22598
H    -4.88466   1.33309  -1.05552
H    -5.38393   1.21565   0.65894
H    -4.71847   2.74724   0.02304
H    -3.03247   1.20192   1.28741
H    -0.11953  -0.11511  -1.81058
H     3.00466  -0.91405   1.32597
H     5.26509  -0.72864  -0.00217
H     4.50054  -1.95937  -1.04221
H     4.86966  -2.33694   0.66437
