44
Generated by autodE on: 2022-05-29. E = -1062.650067 Ha
C    -3.64366   2.66531   1.00721
C    -2.23236   2.14565   0.96189
O    -1.41989   2.42286   1.82809
C    -1.81412   1.32533  -0.28685
C    -1.53735   2.34040  -1.39838
O    -2.88187   0.48997  -0.72710
C    -2.79563  -0.81291  -0.10471
C    -3.53187  -0.80830   1.23849
C    -3.45073  -1.79002  -1.07065
C    -1.28034  -1.03876   0.13304
C    -0.49631  -1.77367  -0.99812
O    -0.29947  -0.73344  -1.96446
C     0.40427   0.16298  -1.08137
C     1.51375  -0.72676  -0.50566
C     2.78381  -0.26037   0.03887
C     3.76174  -1.16746   0.50235
C     4.96576  -0.70569   1.03118
C     5.22272   0.66826   1.11626
C     4.26163   1.57694   0.66439
C     3.05546   1.11996   0.12914
C     0.91908  -1.93258  -0.48486
F     1.35572  -3.07705   0.04245
C    -0.63818   0.38029   0.05121
H    -3.90580   2.94007   2.03735
H    -3.69042   3.57420   0.38276
H    -4.36021   1.94740   0.59221
H    -2.42383   2.96568  -1.57650
H    -1.30264   1.80769  -2.32982
H    -0.69475   2.99310  -1.12885
H    -3.05544  -0.12850   1.96151
H    -3.51753  -1.81773   1.67697
H    -4.57952  -0.50119   1.10364
H    -3.35994  -2.82228  -0.70195
H    -2.98905  -1.72407  -2.06578
H    -4.52087  -1.55332  -1.17256
H    -1.11447  -1.54217   1.09312
H    -0.96355  -2.66427  -1.42916
H     0.73717   1.05512  -1.61814
H     3.57341  -2.23999   0.44152
H     5.71115  -1.42386   1.38140
H     6.16704   1.02666   1.53245
H     4.45056   2.65124   0.72787
H     2.31516   1.84402  -0.21563
H    -0.14633   0.70811   0.97205
