21
Generated by autodE on: 2022-05-29. E = -424.561392 Ha
C     1.96792   1.29624  -0.72070
C     1.79033  -0.08613  -0.10453
O     2.80930  -0.79501   0.11784
C     0.48247  -0.53180   0.19374
C     0.17984  -1.84547   0.83473
O    -0.47578   0.39563  -0.11077
C    -1.75226   0.46184  -0.06013
C    -2.33345   1.74483  -0.53152
C    -2.63280  -0.65187   0.38576
H     1.44320   1.38320  -1.68531
H     1.57051   2.08710  -0.06481
H     3.04080   1.46947  -0.88045
H    -0.24883  -1.74789   1.84640
H     1.14142  -2.36722   0.93277
H    -0.49077  -2.48749   0.24262
H    -3.03698   1.55722  -1.36220
H    -1.55006   2.43931  -0.86121
H    -2.92516   2.21110   0.27623
H    -2.57067  -1.49763  -0.31918
H    -2.35918  -1.02442   1.38241
H    -3.67248  -0.30230   0.41205
