44
Generated by autodE on: 2022-05-29. E = -1062.516740 Ha. Imaginary frequency = -151.2 cm-1
C    -4.24777   2.37316   1.14423
C    -2.85746   2.49590   0.54685
O    -2.16315   3.48884   0.87376
C    -2.39875   1.62872  -0.49574
C    -1.58956   2.22319  -1.61352
O    -3.00912   0.46369  -0.86391
C    -3.38191  -0.59376  -0.20386
C    -3.73692  -0.59728   1.23893
C    -3.77171  -1.73610  -1.07432
C    -0.95270  -1.19392   0.49627
C    -0.29507  -1.81630  -0.75357
O    -0.15733  -0.65567  -1.58830
C     0.55812   0.13093  -0.60978
C     1.75830  -0.81070  -0.29874
C     3.07925  -0.38831   0.14347
C     4.12445  -1.32119   0.32762
C     5.38080  -0.90493   0.76361
C     5.62779   0.44786   1.02983
C     4.60217   1.38107   0.85393
C     3.34211   0.97036   0.41395
C     1.18663  -2.02182  -0.41210
F     1.69441  -3.22738  -0.16089
C    -0.41873   0.04903   0.58078
H    -4.21299   2.04076   2.19305
H    -4.67268   3.38864   1.14140
H    -4.91439   1.71166   0.57923
H    -2.17774   2.94489  -2.21179
H    -1.21462   1.44139  -2.28375
H    -0.73240   2.77306  -1.20162
H    -3.10044   0.08065   1.82129
H    -3.64440  -1.62000   1.62775
H    -4.78694  -0.28978   1.38185
H    -3.49170  -2.68869  -0.60079
H    -3.29688  -1.65221  -2.06104
H    -4.86930  -1.75524  -1.21213
H    -1.46317  -1.77336   1.26000
H    -0.80903  -2.64585  -1.25117
H     0.81488   1.11974  -0.99649
H     3.94511  -2.37740   0.12241
H     6.17632  -1.64218   0.89690
H     6.61402   0.77055   1.37137
H     4.78245   2.43886   1.06019
H     2.55223   1.71256   0.28572
H    -0.44139   0.75723   1.40583
