57
Generated by autodE on: 2022-06-05. E = -1266.427786 Ha
C     3.66288   1.13378   2.67751
N     3.02060   0.29998   1.68197
C     2.06081   0.78351   0.88535
O     1.74396   1.97787   0.91452
C     1.33567  -0.17070  -0.14082
C     2.32103  -1.28318  -0.59268
C     2.57187  -1.60856  -2.04190
O     2.90236  -1.94097   0.26045
N     0.82019   0.61113  -1.24156
C     1.75698   1.44045  -1.98290
C    -0.55252   1.07979  -0.99046
C    -1.25572   1.39998  -2.31411
C    -0.58626   2.36868  -0.09754
C    -0.19393   3.69393  -0.69505
O    -1.03363   2.33860   1.03904
C    -1.19754  -0.10936  -0.18809
C    -2.38453   0.40957   0.61945
O    -3.30324   1.00138   0.07572
O    -2.45416   0.02396   1.89278
C    -3.61773   0.42853   2.62202
C    -1.83688  -1.23005  -1.10027
C    -2.60153  -2.24506  -0.22293
C    -1.45395  -2.96993   0.53097
C    -0.17631  -2.32585  -0.05808
C    -0.63026  -2.07541  -1.50811
C     0.02571  -0.87592   0.50529
C     0.14842  -0.87031   2.02716
H     2.94365   1.47577   3.44046
H     4.45275   0.55412   3.17101
H     4.11129   2.02650   2.21506
H     3.21861  -0.69610   1.62952
H     1.92068  -1.09235  -2.74964
H     2.47698  -2.69780  -2.16382
H     3.62146  -1.34915  -2.25803
H     2.63919   0.84820  -2.25645
H     2.12438   2.31909  -1.42899
H     1.29855   1.77962  -2.92152
H    -2.31808   1.60688  -2.13454
H    -0.81499   2.27831  -2.80192
H    -1.16469   0.55313  -3.00650
H    -1.11126   4.14124  -1.11572
H     0.54264   3.63065  -1.50099
H     0.16721   4.35222   0.10610
H    -3.68109   1.52578   2.66224
H    -3.49774   0.01959   3.63217
H    -4.52970   0.02805   2.15611
H    -2.44903  -0.81274  -1.90515
H    -3.14311  -2.93834  -0.88312
H    -3.34759  -1.79730   0.44580
H    -1.44701  -4.04641   0.30556
H    -1.52773  -2.87161   1.62077
H     0.70086  -2.96465   0.08384
H    -0.92418  -3.00343  -2.02162
H     0.07987  -1.53026  -2.12968
H     1.06906  -1.39736   2.31326
H    -0.69054  -1.37739   2.50745
H     0.18726   0.14966   2.43053
