26
Generated by autodE on: 2022-06-05. E = -540.188571 Ha
C     3.48941  -0.24189  -1.01939
O     2.21916  -0.45383  -0.39643
C     1.33836   0.56926  -0.44852
O     1.61279   1.62736  -0.99886
C     0.08194   0.23299   0.21920
C    -1.10699   0.88487   0.09910
C    -1.48291   2.09462  -0.67708
C    -2.13925   0.02788   0.80953
C    -2.33766  -1.22419  -0.11070
C    -0.98627  -1.98136   0.03151
C    -0.17831  -1.05594   0.99317
C    -1.29326  -0.58079   1.94507
H     4.01822   0.60106  -0.55014
H     3.36818  -0.03709  -2.09357
H     4.05724  -1.16890  -0.87545
H    -0.63911   2.52073  -1.23128
H    -2.29500   1.84535  -1.38233
H    -1.89276   2.86443   0.00010
H    -3.06995   0.54568   1.07507
H    -2.56528  -0.93424  -1.14673
H    -3.17965  -1.82659   0.26130
H    -1.12899  -2.97442   0.48371
H    -0.46408  -2.11777  -0.92617
H     0.70575  -1.52256   1.44201
H    -1.80107  -1.40445   2.47033
H    -0.94743   0.16823   2.67303
