48
Generated by autodE on: 2022-06-11. E = -1136.296328 Ha
C     0.09243   3.94118  -0.78727
O    -0.01055   2.70475  -0.06743
C    -0.60574   1.68727  -0.69612
O    -1.06618   1.78252  -1.81487
C    -0.50587   0.40299   0.10554
C    -0.50515   0.59224   1.64605
C    -1.77287   1.38021   2.05348
C    -2.91993   0.35337   1.82930
C    -2.17158  -0.90413   1.33517
C    -0.86977  -0.81894   2.14706
C    -1.68647  -0.62199  -0.09813
F    -2.74634  -0.14112  -0.85852
C    -1.05556  -1.82241  -0.87456
C    -1.70897  -3.17596  -0.58717
C    -1.21549  -1.54106  -2.33575
N    -1.24440  -1.37539  -3.48402
N     0.35442  -1.76710  -0.50160
C     1.25101  -2.62300  -1.26312
C     0.74704  -0.35821  -0.48488
C     2.04418  -0.06885   0.23473
C     2.51627  -0.86032   1.29086
C     3.69230  -0.51788   1.96420
C     4.41007   0.62348   1.59416
C     3.95086   1.41398   0.53572
C     2.78055   1.06461  -0.14169
H     0.64535   3.79198  -1.72576
H     0.63651   4.62822  -0.12932
H    -0.90767   4.33907  -1.01091
H     0.42869   1.02045   2.02476
H    -1.90875   2.30305   1.47514
H    -1.69690   1.66892   3.11187
H    -3.67198   0.69930   1.10960
H    -3.43963   0.11639   2.76838
H    -2.75459  -1.82784   1.41789
H    -1.05937  -0.83842   3.23032
H    -0.14022  -1.59215   1.89248
H    -1.31547  -3.95145  -1.25788
H    -1.51063  -3.47169   0.45093
H    -2.79446  -3.10390  -0.74500
H     2.25978  -2.57137  -0.83308
H     1.31854  -2.32806  -2.32996
H     0.91607  -3.66753  -1.20931
H     0.87277  -0.00018  -1.52618
H     1.96524  -1.75399   1.58410
H     4.04869  -1.14729   2.78325
H     5.32771   0.89170   2.12316
H     4.50958   2.30235   0.23158
H     2.42934   1.67913  -0.97410
