25
Generated by autodE on: 2022-07-27. E = -536.088385 Ha
C    -3.33963  -1.89877  -0.55016
C    -2.08849  -1.18093  -0.97370
C    -1.80100  -1.03512  -2.33278
N    -1.56338  -0.93554  -3.48083
N    -1.21522  -0.61510  -0.06309
C    -1.49006  -0.90292   1.35614
C    -0.20438   0.18614  -0.41115
C     0.92168   0.63121   0.38045
C     1.46330  -0.03514   1.50812
C     2.58139   0.47383   2.16849
C     3.20367   1.64654   1.72734
C     2.70121   2.30240   0.59626
C     1.58579   1.80179  -0.06843
H    -3.83497  -2.29851  -1.44568
H    -4.06705  -1.23961  -0.04211
H    -3.13836  -2.75125   0.12032
H    -1.14659  -1.91306   1.61615
H    -0.99218  -0.16106   1.98388
H    -2.56881  -0.83670   1.52847
H    -0.22620   0.51812  -1.45051
H     1.03653  -0.97577   1.85302
H     2.97993  -0.06339   3.03269
H     4.07906   2.03791   2.25038
H     3.18439   3.21162   0.23022
H     1.20138   2.31877  -0.95115
