48
Generated by autodE on: 2022-06-11. E = -1136.226011 Ha. Imaginary frequency = -191.0 cm-1
C     0.74139   3.73147  -0.09536
O     0.21520   2.54017   0.49381
C    -0.50930   1.72802  -0.31411
O    -0.69869   1.99889  -1.49740
C    -0.96098   0.54208   0.37792
C    -0.83903   0.31053   1.88049
C    -2.07621   1.02569   2.50884
C    -3.26912   0.16227   1.99735
C    -2.56364  -0.97582   1.18485
C    -1.28035  -1.16045   2.01091
C    -1.99552  -0.28967  -0.03318
F    -2.83588   0.00949  -1.04230
C    -0.81542  -2.06313  -1.25890
C    -1.54357  -3.34428  -0.95880
C    -1.09992  -1.43789  -2.49513
N    -1.35307  -0.93152  -3.51901
N     0.47094  -1.84918  -0.74368
C     1.12209  -2.96093  -0.03589
C     1.03139  -0.64236  -0.83860
C     2.22320  -0.13838  -0.18299
C     2.66280  -0.53175   1.10201
C     3.75119   0.10206   1.70044
C     4.42041   1.14202   1.04552
C     3.98369   1.55561  -0.21811
C     2.89748   0.92746  -0.82202
H     1.37485   3.49561  -0.96190
H     1.34102   4.21646   0.68436
H    -0.07183   4.40091  -0.41413
H     0.12761   0.58152   2.32055
H    -2.13885   2.07655   2.19334
H    -2.01154   1.00499   3.60751
H    -3.97379   0.72678   1.37019
H    -3.83722  -0.27857   2.82951
H    -3.18535  -1.85622   0.98423
H    -1.48765  -1.44937   3.05150
H    -0.57710  -1.87205   1.57406
H    -1.12489  -4.21936  -1.48803
H    -1.54498  -3.56365   0.11831
H    -2.58959  -3.23442  -1.27828
H     2.20165  -2.78667  -0.01676
H     0.92811  -3.88738  -0.58714
H     0.75383  -3.07546   0.99151
H     0.61670  -0.01121  -1.62270
H     2.13186  -1.30298   1.65742
H     4.07121  -0.21092   2.69700
H     5.26987   1.63534   1.52316
H     4.48946   2.37567  -0.73283
H     2.54856   1.26177  -1.80139
