42
Generated by autodE on: 2022-10-07. E = -1102.565729 Ha
C     3.28219  -0.56207   2.34860
N     2.27698  -0.09669   1.41319
C     2.40642  -0.27807   0.09647
O     3.39979  -0.77933  -0.43886
C     1.22823   0.20231  -0.77507
C     1.70978   1.19199  -1.82199
O     0.27949   0.89267   0.07797
C    -1.01586   0.40669  -0.05712
C    -1.49243  -0.48128   1.10883
O    -2.43700  -1.22532   0.97570
O    -0.80079  -0.26785   2.20457
C    -1.16012  -1.04667   3.36446
C    -1.95381   1.61595  -0.27991
O    -2.20142   2.02708  -1.38863
O    -2.35525   2.11489   0.86412
C    -3.17751   3.30311   0.81459
N    -0.99922  -0.40733  -1.29367
C     0.39752  -1.00983  -1.35248
N     0.37647  -2.07743  -0.38512
N     0.63682  -1.31391  -2.73879
C     1.87933  -2.04298  -3.00495
H     3.07369  -0.13494   3.33707
H     4.28329  -0.24471   2.02419
H     3.28082  -1.66196   2.42910
H     1.37929   0.23017   1.76062
H     2.15679   2.05269  -1.30399
H     0.86603   1.54540  -2.43005
H     2.46506   0.74272  -2.47636
H    -0.49118  -0.71313   4.16439
H    -2.20937  -0.85995   3.63016
H    -1.00838  -2.11371   3.15095
H    -2.62102   4.11661   0.33013
H    -4.09989   3.09024   0.25774
H    -3.40058   3.55098   1.85723
H    -1.73824  -1.12986  -1.27076
H    -1.17016   0.21163  -2.10597
H     1.32242  -2.41898  -0.21270
H    -0.16127  -2.86674  -0.75220
H    -0.14103  -1.89659  -3.05767
H     1.93391  -2.24976  -4.08211
H     1.94694  -3.00447  -2.46481
H     2.74913  -1.43948  -2.72186
