51
Generated by autodE on: 2022-06-23. E = -1224.865235 Ha
C     0.74876   3.94400   0.94620
O    -0.17441   2.89735   0.62533
C    -0.30612   2.61330  -0.67761
O     0.24871   3.23936  -1.56924
N    -1.20908   1.59896  -0.90880
C    -1.09039   0.81506  -2.13033
C    -0.55077  -0.54183  -1.60831
C    -0.78078  -1.67138  -2.61342
C     0.93094  -0.38710  -1.32325
C     1.48575   0.15409  -0.22146
C     2.91104   0.36117  -0.03683
C     3.50073   0.87496   1.06999
C     4.99051   1.06057   1.13492
C     2.75734   1.29637   2.30718
C    -1.41041  -0.65473  -0.28592
C    -0.75096  -1.50236   0.81741
O    -0.73514  -1.18902   1.98811
O    -0.21721  -2.62189   0.34477
C     0.43058  -3.48304   1.29338
C    -2.79212  -1.25558  -0.63689
O    -3.63119  -0.66270  -1.27928
O    -2.95914  -2.48037  -0.15213
C    -4.20674  -3.13539  -0.44215
N    -1.53814   0.73079   0.17101
C    -2.71742   1.13097   0.92255
H     0.41930   4.89871   0.51102
H     1.75368   3.69915   0.57454
H     0.75694   4.01187   2.03988
H    -2.07199   0.68866  -2.60483
H    -0.40313   1.30028  -2.83005
H    -0.46576  -2.63856  -2.20019
H    -1.83413  -1.74107  -2.91895
H    -0.18645  -1.47369  -3.51799
H     1.58174  -0.69244  -2.15025
H     0.83543   0.47063   0.59452
H     3.55471   0.07793  -0.87804
H     5.42008   0.49000   1.97774
H     5.49009   0.74256   0.20806
H     5.24369   2.11943   1.32250
H     3.14975   0.75450   3.18563
H     2.92507   2.36845   2.50807
H     1.67530   1.12238   2.25567
H    -0.28444  -3.81435   2.05965
H     0.79922  -4.33993   0.71863
H     1.26755  -2.95499   1.77233
H    -5.04459  -2.54932  -0.03974
H    -4.15147  -4.11376   0.04749
H    -4.32575  -3.25532  -1.52812
H    -3.61290   1.27137   0.29376
H    -2.50204   2.06812   1.45482
H    -2.92447   0.35785   1.67515
