23
Generated by autodE on: 2022-06-23. E = -351.521385 Ha
C     3.58790   1.18684   0.13340
C     2.56726   0.30601   0.04274
C     2.81921  -1.17407  -0.09225
C     1.18622   0.78329   0.07604
C     0.07851   0.00375  -0.00138
C    -1.27137   0.52809   0.03754
C    -2.42566  -0.18235  -0.03048
C    -3.75877   0.50888   0.02338
C    -2.49570  -1.67735  -0.16242
H     3.40135   2.26073   0.23172
H     4.63043   0.85741   0.11160
H     2.37304  -1.57028  -1.01957
H     2.36086  -1.73277   0.74068
H     3.89578  -1.39523  -0.10513
H     1.05657   1.86793   0.17357
H     0.20067  -1.07842  -0.09793
H    -1.35318   1.61760   0.13351
H    -4.34835   0.29290  -0.88581
H    -4.35965   0.13494   0.87185
H    -3.65857   1.59976   0.12200
H    -3.05635  -2.10962   0.68523
H    -3.05680  -1.95437  -1.07241
H    -1.51283  -2.16385  -0.20585
