28
Generated by autodE on: 2022-06-23. E = -873.291781 Ha
C     4.21716   0.76739   0.88428
O     3.45452   0.30265  -0.23449
C     2.22091  -0.15198   0.03592
O     1.75868  -0.18839   1.17157
N     1.65666  -0.63008  -1.11849
N     0.37150  -0.92770  -1.11121
C     0.05366  -2.01938  -2.06366
C    -0.58650  -0.33789  -0.40956
C    -0.33861   0.96420   0.28560
O     0.26689   1.88459  -0.22301
O    -0.90995   0.99948   1.48040
C    -0.76283   2.21779   2.22963
C    -1.96950  -0.88799  -0.39176
O    -2.25307  -2.06795  -0.42945
O    -2.86406   0.09544  -0.30978
C    -4.24385  -0.29016  -0.19321
H     3.69502   1.58974   1.39528
H     4.39810  -0.04870   1.59940
H     5.16915   1.12361   0.47311
H    -0.90027  -1.83098  -2.56421
H     0.01376  -2.96493  -1.50957
H     0.87542  -2.04017  -2.78405
H    -1.29145   2.05310   3.17489
H    -1.20979   3.05907   1.68149
H     0.30219   2.41709   2.41419
H    -4.80980   0.64474  -0.11736
H    -4.39121  -0.90268   0.70768
H    -4.55661  -0.85738  -1.08121
