28
Generated by autodE on: 2022-07-27. E = -873.289096 Ha
C    -1.03604  -0.09714   4.16093
O    -0.15927   0.75880   3.41836
C    -0.23761   0.81894   2.07859
O     0.55819   1.53931   1.48028
N    -1.28177   0.11504   1.54972
N    -1.34773  -0.02046   0.23521
C    -2.74777  -0.07864  -0.24880
C    -0.33199  -0.14234  -0.60064
C     1.05587  -0.40057  -0.09959
O     1.30673  -1.19534   0.78135
O     1.95542   0.28662  -0.78639
C     3.33248   0.09439  -0.41832
C    -0.55131  -0.14663  -2.07563
O    -1.36804   0.53519  -2.65846
O     0.28843  -0.99092  -2.66886
C     0.24692  -1.04796  -4.10524
H    -0.71665  -0.01149   5.20740
H    -2.08108   0.22877   4.06201
H    -0.94310  -1.14007   3.82726
H    -3.35092  -0.39560   0.60598
H    -2.84230  -0.78690  -1.07679
H    -3.04730   0.92682  -0.56936
H     3.62064  -0.95700  -0.55803
H     3.48217   0.38599   0.63068
H     3.91301   0.74241  -1.08388
H     0.46980  -0.05865  -4.52946
H     1.01484  -1.77238  -4.39745
H    -0.74457  -1.38104  -4.44295
