51
Generated by autodE on: 2022-06-23. E = -1224.796795 Ha. Imaginary frequency = -210.8 cm-1
C    -0.88290  -4.37148   0.43950
O    -1.44965  -3.73835  -0.70983
C    -1.44518  -2.38499  -0.70251
O    -1.19184  -1.72594   0.30054
N    -1.88020  -1.84933  -1.87016
C    -1.30240   0.17264  -2.19610
C    -0.18409   0.27063  -3.01770
C    -0.33737   0.57581  -4.48809
C     1.16130   0.25584  -2.49288
C     1.52229  -0.17689  -1.25002
C     2.88529  -0.23209  -0.78531
C     3.31540  -0.83029   0.35806
C     4.77226  -0.84037   0.71853
C     2.41595  -1.55051   1.32092
C    -0.72003  -2.66160  -3.73566
C     0.61051  -2.68533  -3.12823
O     0.87615  -2.86982  -1.95115
O     1.55916  -2.45392  -4.05662
C     2.92114  -2.64244  -3.65407
C    -0.82836  -2.89373  -5.20808
O    -1.44554  -2.17441  -5.96951
O    -0.16849  -3.98510  -5.59279
C    -0.11417  -4.24378  -7.00528
N    -1.85497  -2.49303  -3.02651
C    -3.17237  -2.59609  -3.67538
H    -1.42640  -4.09407   1.35436
H     0.17836  -4.10004   0.54709
H    -0.97422  -5.45057   0.26427
H    -2.28247   0.39005  -2.62290
H    -1.21135   0.29625  -1.11786
H    -0.11295   1.64117  -4.67850
H     0.36452  -0.01183  -5.09891
H    -1.35720   0.37551  -4.84252
H     1.95510   0.55924  -3.18496
H     0.74072  -0.53113  -0.57659
H     3.63992   0.22314  -1.43738
H     4.93454  -0.36210   1.70122
H     5.14129  -1.87682   0.82010
H     5.38966  -0.32113  -0.02888
H     2.69761  -2.61797   1.36709
H     2.55218  -1.15535   2.34272
H     1.35120  -1.49463   1.06556
H     3.08886  -3.68992  -3.36099
H     3.52917  -2.39702  -4.53251
H     3.18180  -1.98301  -2.81664
H    -1.12692  -4.38688  -7.40794
H     0.47509  -5.16039  -7.12001
H     0.37413  -3.40711  -7.52546
H    -3.17733  -3.41773  -4.40008
H    -3.41720  -1.65112  -4.18132
H    -3.90234  -2.79415  -2.88391
