14
Generated by autodE on: 2022-05-26. E = -324.833502 Ha
C     3.00254   1.09563   0.29253
C     1.70482   0.45804   0.14700
C     0.61618  -0.06908   0.02745
C    -0.63736  -0.79347  -0.12523
O    -0.64093  -2.02513  -0.26477
N    -1.77221  -0.06351  -0.10833
C    -1.90226   1.37126   0.04822
H     2.99304   2.11049  -0.13601
H     3.78810   0.51149  -0.21274
H     3.27247   1.17916   1.35800
H    -2.62423  -0.60993  -0.21592
H    -0.90869   1.82838   0.12698
H    -2.42070   1.81382  -0.81664
H    -2.47234   1.61934   0.95751
