61
Generated by autodE on: 2022-06-26. E = -1663.348473 Ha
C    -2.08121   2.89759   3.19581
N    -1.69421   2.25283   1.95688
C    -0.46712   2.40741   1.44296
O     0.36754   3.18577   1.90060
C    -0.20063   1.58871   0.13536
C    -0.18205   2.67954  -0.95607
O     0.62578   3.58342  -0.96142
O    -1.22030   2.59233  -1.77893
C    -1.28512   3.57204  -2.82661
O    -1.25961   0.67399  -0.08431
C    -0.88586  -0.69338   0.10703
C    -0.89333  -1.42114  -1.26479
C    -1.72903  -0.81967  -2.35127
O    -0.28166  -2.46535  -1.39400
C    -1.99399  -1.40682   0.88261
C    -3.25293  -0.80620   1.02432
C    -4.28312  -1.46846   1.69864
C    -4.07375  -2.74602   2.22170
C    -2.83004  -3.36377   2.05315
C    -1.80006  -2.70507   1.38038
C     0.53394  -0.62024   0.80455
C     0.39099  -0.51308   2.33006
C     1.45640  -1.82257   0.53088
O     1.47747  -2.77985   1.28393
C     2.40600  -1.79598  -0.62233
O     3.11967  -2.91572  -0.69659
C     4.32277  -2.99714  -1.47336
C     2.42214  -0.74196  -1.49292
O     3.07924  -0.80984  -2.67740
C     4.04202   0.21899  -2.94121
C     1.52408   0.40216  -1.28074
O     1.19726   1.10085  -2.23074
C     1.08309   0.70035   0.16243
C     2.30827   1.30491   0.86529
H    -3.15034   2.72368   3.36743
H    -1.51237   2.49652   4.05120
H    -1.89732   3.98052   3.14140
H    -2.28407   1.53045   1.55967
H    -2.19558   3.34639  -3.39304
H    -1.33756   4.58522  -2.40383
H    -0.40094   3.48779  -3.47489
H    -1.83143  -1.53790  -3.17435
H    -2.71553  -0.52373  -1.96587
H    -1.23787   0.09681  -2.71156
H    -3.44219   0.17420   0.58779
H    -5.25510  -0.98173   1.80584
H    -4.87826  -3.26404   2.74867
H    -2.65818  -4.36804   2.44698
H    -0.84011  -3.20364   1.25278
H    -0.32434   0.26173   2.62223
H     1.36273  -0.29226   2.78954
H     0.03771  -1.46289   2.74185
H     4.83294  -3.90359  -1.12345
H     4.96002  -2.11913  -1.29206
H     4.09776  -3.08353  -2.54338
H     4.41583   0.03995  -3.95720
H     3.58811   1.21917  -2.88939
H     4.87577   0.15155  -2.22382
H     3.14121   0.59004   0.85323
H     2.08315   1.57212   1.90099
H     2.62343   2.21589   0.33921
