35
Generated by autodE on: 2022-06-26. E = -973.818915 Ha
C     3.88126  -1.47748  -2.23934
N     3.25962  -0.53311  -1.33583
C     1.93251  -0.54675  -1.10225
O     1.15577  -1.31405  -1.71656
C     1.41696   0.34640  -0.07377
O     0.10463   0.26299   0.26118
C    -0.94374  -0.13154  -0.38111
C    -0.97270  -0.25225  -1.88837
C    -0.37952   0.89482  -2.66254
O    -1.65398  -1.11462  -2.41756
C    -2.13106  -0.29514   0.43711
C    -3.40901  -0.50305  -0.13290
C    -4.52576  -0.64293   0.68726
C    -4.39634  -0.57599   2.07831
C    -3.13588  -0.36570   2.65432
C    -2.01322  -0.22940   1.84785
C     2.22090   1.03793   0.90370
O     3.44750   1.15231   0.83845
O     1.50340   1.58923   1.90316
C     2.24298   2.30567   2.89746
H     4.88753  -1.12011  -2.49314
H     3.96998  -2.48534  -1.79770
H     3.29131  -1.56508  -3.16270
H     3.82488   0.03015  -0.70022
H    -1.22108   1.55329  -2.93771
H     0.07807   0.51343  -3.58548
H     0.35279   1.48577  -2.09736
H    -3.52614  -0.54922  -1.21344
H    -5.50736  -0.80105   0.23586
H    -5.27633  -0.68811   2.71557
H    -3.03141  -0.31531   3.74014
H    -1.03176  -0.07305   2.29574
H     2.79643   3.14162   2.44492
H     1.50002   2.68782   3.60753
H     2.95070   1.64101   3.41470
