35
Generated by autodE on: 2022-07-27. E = -973.812596 Ha
C     1.86291   4.44343   1.59980
N     1.56379   3.42090   0.62213
C     0.94560   2.27086   0.97309
O     0.63786   2.02197   2.15559
C     0.67265   1.31064  -0.10470
O     0.02512   0.21764   0.38190
C    -0.20653  -0.96776  -0.05454
C     0.57309  -1.49981  -1.25444
C    -0.12913  -2.20446  -2.37293
O     1.78177  -1.38101  -1.18649
C    -1.03527  -1.79008   0.80172
C    -1.62000  -1.21366   1.95774
C    -2.41069  -1.98268   2.80090
C    -2.64002  -3.33607   2.51457
C    -2.06367  -3.91760   1.38100
C    -1.26657  -3.15789   0.52825
C     0.73621   1.60026  -1.50697
O     1.30808   2.57696  -1.99875
O     0.04125   0.72770  -2.27010
C     0.02485   0.96495  -3.68229
H     2.40707   5.25806   1.10570
H     2.48912   4.04845   2.41604
H     0.94843   4.85995   2.05548
H     1.74826   3.56952  -0.36798
H     0.36774  -1.94223  -3.31711
H    -1.19832  -1.96127  -2.41315
H    -0.01277  -3.29234  -2.23728
H    -1.43330  -0.16309   2.18087
H    -2.85646  -1.52791   3.68794
H    -3.26748  -3.93593   3.17743
H    -2.23364  -4.97299   1.15929
H    -0.82071  -3.63850  -0.34019
H    -0.38479   1.96106  -3.90103
H     1.04001   0.88623  -4.09737
H    -0.62030   0.19059  -4.11190
