26
Generated by autodE on: 2022-06-26. E = -689.460847 Ha
C     2.72449   1.77004  -0.05950
O     1.89137   1.04402  -0.96934
C     0.77335   0.47513  -0.42961
C     0.63718  -0.86840  -0.24441
O     1.50957  -1.84621  -0.48673
C     2.83598  -1.60023  -0.96519
C    -0.65831  -1.42262   0.28678
O    -0.76415  -2.63181   0.43885
C    -1.76749  -0.49440   0.62554
C    -3.02961  -1.08988   1.16885
C    -1.61844   0.84126   0.44347
C    -2.70625   1.81330   0.77500
C    -0.34656   1.38914  -0.11778
O    -0.22274   2.59354  -0.33375
H     3.56977   2.15304  -0.64654
H     3.10308   1.10563   0.73509
H     2.18316   2.61327   0.39429
H     3.30081  -2.59093  -1.04707
H     3.40447  -0.98630  -0.25226
H     2.81765  -1.11522  -1.94959
H    -3.89140  -0.82342   0.53521
H    -3.24487  -0.69447   2.17535
H    -2.95974  -2.18240   1.22785
H    -2.39884   2.84257   0.55644
H    -2.97976   1.74131   1.84076
H    -3.62026   1.58618   0.20143
