61
Generated by autodE on: 2022-06-26. E = -1663.274955 Ha. Imaginary frequency = -282.2 cm-1
C    -0.51456   4.97914   1.45260
N    -0.34080   3.85089   0.56279
C    -0.98388   2.69040   0.77867
O    -1.80797   2.54496   1.69481
C    -0.62215   1.54543  -0.10807
C     0.01419   1.73355  -1.41348
O     0.60567   2.75246  -1.75239
O    -0.07258   0.65714  -2.18948
C     0.58554   0.65608  -3.46573
O    -1.37275   0.47586   0.18418
C    -1.22636  -0.82105  -0.01589
C    -1.11488  -1.38230  -1.43795
C    -2.29343  -1.02741  -2.30841
O    -0.28702  -2.20691  -1.76026
C    -2.02331  -1.64897   0.88985
C    -2.75587  -1.05575   1.94071
C    -3.48037  -1.85104   2.82293
C    -3.48082  -3.24484   2.68179
C    -2.75326  -3.84036   1.64662
C    -2.03164  -3.05283   0.75133
C     0.97632  -0.82915   1.08035
C     0.55009  -1.53527   2.33939
C     1.71600  -1.68148   0.11156
O     1.78965  -2.89750   0.27445
C     2.45384  -1.01429  -0.99265
O     2.92823  -1.67014  -2.06342
C     2.75757  -3.07115  -2.30184
C     2.79356   0.31359  -0.89464
O     3.60967   0.79022  -1.86371
C     3.90680   2.17622  -2.05596
C     2.30556   1.13064   0.22701
O     2.74354   2.26272   0.43884
C     1.27783   0.54141   1.13739
C     1.05172   1.29535   2.41455
H     0.09902   5.81299   1.09035
H    -1.56688   5.30237   1.48897
H    -0.20347   4.72894   2.48044
H     0.32944   3.88348  -0.20280
H     1.67063   0.74587  -3.33444
H     0.34230  -0.31158  -3.91827
H     0.20537   1.47856  -4.08631
H    -2.01217  -1.13017  -3.36509
H    -2.68058  -0.02216  -2.10184
H    -3.08959  -1.75706  -2.08149
H    -2.74728   0.02833   2.05173
H    -4.04809  -1.38264   3.62984
H    -4.04827  -3.86501   3.37925
H    -2.74675  -4.92656   1.53486
H    -1.45501  -3.52788  -0.04214
H     1.40609  -1.58209   3.03550
H    -0.26112  -1.00798   2.85310
H     0.22825  -2.56140   2.13568
H     1.70148  -3.36003  -2.25951
H     3.14479  -3.23105  -3.31700
H     3.33887  -3.66841  -1.58686
H     4.56390   2.55966  -1.26431
H     2.99175   2.77943  -2.10655
H     4.43027   2.22052  -3.02080
H     1.74019   0.91131   3.18806
H     1.25179   2.36361   2.28531
H     0.03076   1.16103   2.78990
