35
Generated by autodE on: 2022-10-07. E = -1123.384548 Ha. Imaginary frequency = -334.6 cm-1
C     4.09715   0.10823   1.52965
O     3.80232   1.15616   0.60008
C     2.51616   1.53936   0.38513
O     2.32609   2.53796  -0.31022
N     1.59875   0.72664   0.97594
O     0.35087   1.26457   0.68239
C    -0.65654   0.38879   0.70289
C    -0.68127  -0.62426   1.80680
C    -1.91428   1.03354   0.24512
C    -3.17041   0.49049   0.56130
C    -4.33986   1.10303   0.10578
C    -4.27152   2.26136  -0.67245
C    -3.02317   2.80738  -0.99570
C    -1.85406   2.19925  -0.54436
C    -0.06775  -0.71517  -0.97512
C    -1.13417  -1.80938  -1.03375
O    -0.95922  -2.85212  -0.35224
O    -2.11811  -1.55823  -1.77627
C     1.27857  -1.00390  -0.73700
C     1.81857  -2.33097  -0.24225
O     1.97076  -2.57094   0.97822
O     2.12158  -3.08028  -1.20486
H     3.77474   0.38577   2.54509
H     5.18884  -0.01077   1.51141
H     3.61136  -0.83501   1.24873
H     0.28168  -1.13750   1.88645
H    -0.88409  -0.08753   2.75025
H    -1.46473  -1.37044   1.64876
H    -3.24127  -0.41586   1.16196
H    -5.30956   0.66966   0.36066
H    -5.18759   2.73772  -1.02947
H    -2.96219   3.71135  -1.60605
H    -0.88093   2.62022  -0.79945
H    -0.25639   0.10728  -1.66965
H     2.02791  -0.38847  -1.24065
