40
Generated by autodE on: 2022-05-31. E = -3587.946670 Ha
C     5.06110   1.07759  -0.54779
O     3.70811   0.64364  -0.73774
C     3.21519  -0.21024   0.17665
O     3.85421  -0.62114   1.12575
C     1.82424  -0.55477  -0.13466
C     0.88282  -1.11775   0.64792
Br    0.96148  -1.70560   2.41583
C    -0.42502  -1.02320  -0.12991
O     0.04548  -1.14961  -1.47429
C     1.05579  -0.12623  -1.38597
C     0.22067   1.12607  -0.99309
C    -0.60805   1.75801  -2.14408
C     0.04207   1.75453  -3.51582
N    -1.91117   1.06927  -2.15248
C    -2.19903   0.81689  -0.74242
C    -2.81564   2.08420  -0.08770
C    -3.76442   2.88435  -0.93068
O    -2.56080   2.37553   1.06442
C    -3.24233  -0.29140  -0.49214
C    -3.78143  -1.04761  -1.66639
O    -3.57510  -0.52865   0.65552
C    -0.84288   0.47977  -0.05219
H     5.16632   1.60246   0.41295
H     5.27960   1.75929  -1.37776
H     5.74754   0.21865  -0.56981
H    -1.18674  -1.77101   0.11036
H     1.63988  -0.06167  -2.30724
H     0.85516   1.87304  -0.50096
H    -0.79470   2.80559  -1.85198
H     0.17232   0.72858  -3.89584
H    -0.57925   2.30554  -4.23785
H     1.03182   2.23408  -3.47757
H    -1.76791   0.16777  -2.60936
H    -4.50007   2.22509  -1.41716
H    -3.20742   3.38525  -1.73712
H    -4.27010   3.63380  -0.30835
H    -2.95796  -1.59299  -2.15800
H    -4.54385  -1.76098  -1.32920
H    -4.19933  -0.35525  -2.41257
H    -0.83982   0.84536   0.97912
