19
Generated by autodE on: 2022-05-31. E = -3109.086370 Ha
C     3.66913   0.07641  -0.63577
O     2.29282  -0.07707  -0.26729
C     1.44461  -0.41444  -1.24109
O     1.78450  -0.60958  -2.39813
C     0.05676  -0.52922  -0.79563
C    -0.59725  -0.14684   0.31739
Br   -0.01168   0.68831   1.87370
C    -2.09825  -0.40985   0.03147
C    -2.52395   0.62383  -1.03642
C    -1.88872   0.24139  -2.14743
C    -1.08004  -1.00831  -1.73489
O    -1.97386  -1.59250  -0.76765
H     4.19789   0.35551   0.28302
H     4.07084  -0.86723  -1.03325
H     3.78090   0.86626  -1.39305
H    -2.74505  -0.54903   0.90368
H    -3.15968   1.48817  -0.84986
H    -1.86181   0.70443  -3.13294
H    -0.78701  -1.71282  -2.51901
