40
Generated by autodE on: 2022-05-31. E = -3587.873632 Ha. Imaginary frequency = -339.7 cm-1
C     5.12956   1.19742  -0.80212
O     3.74355   0.83672  -0.84518
C     3.33750  -0.10320   0.02890
O     4.08179  -0.64255   0.82625
C     1.90506  -0.36331  -0.11817
C     1.05788  -1.03322   0.68733
Br    1.34208  -1.90984   2.30493
C    -0.35266  -0.81476   0.09330
O    -0.02020  -0.77640  -1.29839
C     0.97347   0.25851  -1.18714
C     0.14638   1.36561  -0.49704
C    -1.15979   2.12274  -2.09182
C    -0.36657   2.23153  -3.34969
N    -2.15443   1.22940  -2.02810
C    -2.84055   0.85730  -0.88871
C    -3.36412   1.81629   0.08102
C    -3.34090   3.29671  -0.23497
O    -3.84430   1.45107   1.16150
C    -3.27001  -0.54601  -0.94667
C    -4.02898  -1.17440   0.18962
O    -2.97974  -1.22553  -1.94301
C    -0.68454   0.66551   0.36180
H     5.26625   1.96739  -1.57025
H     5.76227   0.32498  -1.02205
H     5.39427   1.59729   0.18776
H    -1.09869  -1.57822   0.33085
H     1.43931   0.48441  -2.14980
H     0.55694   2.35561  -0.29955
H    -1.26638   3.02631  -1.49864
H    -0.87858   2.89723  -4.06639
H    -0.22879   1.24935  -3.82618
H     0.61832   2.67229  -3.14029
H    -2.07708   0.42661  -2.66347
H    -3.43577   3.51663  -1.30714
H    -4.16239   3.77084   0.31940
H    -2.39869   3.73886   0.12854
H    -4.23795  -2.22069  -0.07045
H    -3.44703  -1.12739   1.12119
H    -4.96850  -0.63620   0.38180
H    -1.14152   1.01361   1.28577
