39
Generated by autodE on: 2022-06-17. E = -765.061997 Ha
C    -4.72228  -0.50524  -1.86279
C    -4.10600   0.02769  -0.78818
C    -4.76491   1.08599   0.05683
C    -2.75744  -0.42503  -0.42588
C    -2.03892   0.02651   0.61576
C    -0.65764  -0.43076   0.99632
N    -0.12813  -1.47184   0.09701
C     0.72687  -2.45663   0.75334
N     0.61272  -0.75912  -0.87964
N     1.24893   0.31019  -0.18685
C     2.62087   0.43888  -0.29059
O     3.24269   1.32708   0.31364
N     3.22542  -0.41937  -1.14931
C     4.65836  -0.40745  -1.33887
C     0.42966   0.73570   0.98215
C     1.19248   0.73281   2.31170
C    -0.14446   2.12851   0.71577
H    -5.72546  -0.18875  -2.16231
H    -4.23455  -1.27333  -2.47095
H    -4.16265   2.00962   0.07632
H    -5.76647   1.33363  -0.32226
H    -4.86281   0.75335   1.10372
H    -2.31955  -1.19588  -1.06749
H    -2.46013   0.78793   1.27724
H    -0.71069  -0.83483   2.01743
H     0.15175  -2.96234   1.54121
H     1.63415  -2.02168   1.21138
H     1.03984  -3.20854   0.01527
H    -0.07169  -0.33743  -1.51176
H     2.65424  -1.17451  -1.51512
H     5.20694  -0.78726  -0.45871
H     5.01649   0.61326  -1.54037
H     4.91000  -1.03937  -2.20066
H     0.47150   0.88579   3.12872
H     1.70299  -0.22593   2.48205
H     1.93767   1.53528   2.35206
H     0.68427   2.84863   0.64095
H    -0.71223   2.15343  -0.22537
H    -0.80841   2.45094   1.53162
