23
Generated by autodE on: 2022-06-17. E = -351.521383 Ha
C     3.68603   0.17136  -0.82700
C     2.57852  -0.15613  -0.12557
C     2.66730  -0.94923   1.15320
C     1.26183   0.26048  -0.60409
C     0.07865  -0.00577   0.00427
C    -1.20153   0.43096  -0.51458
C    -2.42450   0.20245   0.02748
C    -2.66172  -0.56644   1.29627
C    -3.66820   0.72400  -0.63517
H     3.61839   0.74778  -1.75484
H     4.68329  -0.12723  -0.49197
H     3.71027  -1.19558   1.39729
H     2.09758  -1.89034   1.07776
H     2.23651  -0.38836   1.99927
H     1.25179   0.83665  -1.53720
H     0.08119  -0.58026   0.93449
H    -1.16235   1.00687  -1.44718
H    -1.74300  -0.94033   1.76614
H    -3.32327  -1.42904   1.10136
H    -3.19177   0.06445   2.03158
H    -4.22664   1.38897   0.04802
H    -3.44602   1.27996  -1.55781
H    -4.35598  -0.10438  -0.88346
