16
Generated by autodE on: 2022-06-17. E = -413.524930 Ha
C     3.08897  -0.56719   0.26266
N     2.49010   0.50992  -0.49056
N     1.22939   0.52622  -0.44004
N     0.44353  -0.29432   0.19505
C    -0.89484   0.07461  -0.00759
O    -1.25041   1.04727  -0.69517
N    -1.76089  -0.73709   0.62536
C    -3.19319  -0.54722   0.53679
H     2.81403  -0.51124   1.33045
H     4.17817  -0.50111   0.16069
H     2.74320  -1.55112  -0.09962
H     0.74979   1.28500  -0.96689
H    -1.38252  -1.51809   1.15024
H    -3.68875  -1.28723   1.17688
H    -3.55791  -0.67575  -0.49573
H    -3.48368   0.46033   0.87407
