16
Generated by autodE on: 2022-07-27. E = -413.520177 Ha
C    -2.35999  -2.54047   0.44960
N    -1.96391  -1.47544  -0.44462
N    -0.95051  -0.84251  -0.05291
N    -0.40760   0.15484  -0.68627
C     0.69958   0.62067   0.03194
O     1.08134   0.12898   1.11026
N     1.30314   1.66085  -0.57723
C     2.46557   2.33949  -0.04966
H    -1.71586  -2.62465   1.34199
H    -2.34336  -3.49731  -0.09571
H    -3.39969  -2.37453   0.77269
H    -0.46744  -1.09781   0.84597
H     0.89645   1.97849  -1.45113
H     2.24991   3.39958   0.16063
H     3.30874   2.29487  -0.75744
H     2.76752   1.85270   0.88508
