39
Generated by autodE on: 2022-06-17. E = -765.005041 Ha. Imaginary frequency = -454.3 cm-1
C    -5.56764  -0.60262   0.70104
C    -4.49530   0.02098   0.16721
C    -4.65119   1.08265  -0.89091
C    -3.14658  -0.32972   0.61498
C    -1.99822   0.23200   0.17080
C    -0.67011  -0.16990   0.62305
N    -0.13135  -1.38943  -0.85008
C    -0.62865  -2.71110  -0.52300
N     1.17952  -1.32169  -0.77494
N     1.64279  -0.07250  -0.84065
C     2.98358  -0.00994  -0.43525
O     3.61050  -0.96564   0.04864
N     3.53558   1.20779  -0.62377
C     4.82588   1.55077  -0.06285
C     0.41729   0.76114   0.70362
C     1.33148   0.61248   1.89356
C     0.26279   2.15160   0.15170
H    -6.58586  -0.36084   0.38366
H    -5.44972  -1.37314   1.46928
H    -4.11872   0.80290  -1.81516
H    -5.70956   1.24777  -1.13739
H    -4.21924   2.04118  -0.55814
H    -3.08496  -1.10942   1.38353
H    -2.04519   1.01506  -0.59025
H    -0.67467  -0.93313   1.40911
H    -1.68555  -2.62247  -0.23823
H    -0.57708  -3.36248  -1.41127
H    -0.07181  -3.19717   0.30128
H     1.67805  -1.94805  -0.11440
H     2.93434   1.94240  -0.98003
H     4.82009   1.50780   1.03982
H     5.08793   2.57023  -0.37210
H     5.60617   0.86397  -0.42410
H     1.62809  -0.43768   2.04505
H     0.81245   0.94077   2.81229
H     2.23952   1.22550   1.79734
H    -0.17574   2.14867  -0.85565
H     1.23448   2.66505   0.10438
H    -0.39153   2.75651   0.80494
