28
Generated by autodE on: 2022-05-25. E = -694.759865 Ha
C     2.61556  -2.06829  -0.33948
C     1.87531  -0.84812   0.07487
C     2.11281   0.44977  -0.13753
F     3.12769   1.01818  -0.79810
C     0.89734   1.22919   0.32762
O     0.48245   0.42313   1.43796
C     0.48711  -0.82949   0.72164
C    -0.54797  -0.54600  -0.40578
C    -0.21511   0.93986  -0.73138
N    -1.48209   1.66106  -0.56759
O    -2.23381   0.88408   0.41016
C    -2.03712  -0.48939   0.02796
C    -2.94234  -0.84131  -1.15519
C    -2.38989  -1.31692   1.25520
H     2.85087  -2.70914   0.52703
H     2.00197  -2.67605  -1.02749
H     3.55437  -1.81249  -0.85199
H     1.03567   2.28243   0.60100
H     0.25936  -1.66921   1.38638
H    -0.40776  -1.22996  -1.25116
H     0.16158   1.11007  -1.74833
H    -1.31953   2.53555  -0.06282
H    -3.99587  -0.66257  -0.89034
H    -2.69459  -0.22955  -2.03477
H    -2.82416  -1.90099  -1.42805
H    -3.46152  -1.21115   1.48338
H    -1.81788  -0.98380   2.13201
H    -2.18035  -2.38147   1.07444
