12
Generated by autodE on: 2022-05-25. E = -248.511867 Ha
C    -0.78215   1.28297  -0.33560
C    -0.45220  -0.11223   0.00624
C    -1.45328  -1.18727   0.21543
O     0.77624  -0.44281   0.13770
N     1.78351   0.48707  -0.03596
H    -1.86512   1.43450  -0.41956
H    -0.35313   1.95965   0.42716
H    -0.27681   1.55887  -1.28019
H    -2.14316  -0.91579   1.03370
H    -2.07245  -1.31700  -0.68953
H    -0.95941  -2.13817   0.45719
H     2.59036  -0.12469   0.14280
