23
Generated by autodE on: 2022-05-31. E = -589.065347 Ha
C     0.68573   0.08829  -1.97738
C     0.06806   0.09832  -0.62462
N     0.82931   0.01534   0.44487
C     2.20648  -0.21719   0.56720
C     2.82875   0.19239   1.75889
N     3.35108   0.52971   2.75190
C     2.94275  -0.94880  -0.37834
N     3.58333  -1.57380  -1.13437
C    -1.38282   0.18834  -0.41866
C    -2.20078   0.86237  -1.34895
C    -3.57149   0.98354  -1.12745
C    -4.15561   0.42499   0.01425
C    -3.35832  -0.26068   0.93618
C    -1.98659  -0.38332   0.72234
H     0.97667  -0.93612  -2.26341
H     1.59751   0.70519  -1.98984
H    -0.01433   0.45448  -2.73520
H     0.35406   0.13758   1.34269
H    -1.76248   1.32116  -2.23551
H    -4.18771   1.52126  -1.85121
H    -5.23119   0.51663   0.18095
H    -3.80889  -0.71729   1.81997
H    -1.38990  -0.95968   1.43274
