20
Generated by autodE on: 2022-06-16. E = -565.999727 Ha
C     4.31530   0.36473  -0.27741
N     2.98204   0.20744   0.26478
C     1.89704   0.18618  -0.54001
O     1.98393   0.30270  -1.76994
C     0.63706   0.01651   0.21029
N    -0.56753  -0.02210  -0.31256
C    -0.77383   0.10077  -1.77579
C    -1.70853  -0.17608   0.47296
C    -2.99999  -0.19773  -0.08487
N    -4.09830  -0.22255  -0.48670
C    -1.58577  -0.30669   1.86947
N    -1.48282  -0.41585   3.02871
H     4.56721  -0.46104  -0.96223
H     4.40606   1.30738  -0.84030
H     5.03551   0.37294   0.54914
H     2.86358   0.10709   1.26788
H     0.70059  -0.08068   1.29475
H    -0.21254  -0.69082  -2.28014
H    -0.40152   1.07539  -2.10650
H    -1.83974   0.00744  -1.99477
