26
Generated by autodE on: 2022-06-16. E = -644.617986 Ha. Imaginary frequency = -410.5 cm-1
C     4.22305   0.30325  -1.25314
N     2.79565   0.52226  -1.13098
C     2.01827  -0.30240  -0.40260
O     2.47482  -1.29620   0.17699
C     0.59854   0.15577  -0.30540
C     0.49531   1.22351   1.51661
C    -0.86267   1.30057   1.79406
C    -1.68780  -0.05798  -0.01964
C    -2.79065  -0.75860   0.53347
N    -3.71148  -1.28376   1.02028
C    -2.00171   1.06487  -0.83412
N    -2.26559   1.99396  -1.48804
N    -0.45375  -0.68815  -0.15707
C    -0.31365  -1.97540   0.53136
H     4.66141   1.13018  -1.82419
H     4.44033  -0.64300  -1.77401
H     4.70034   0.25998  -0.26156
H     2.37669   1.32132  -1.59539
H     0.36974   1.03978  -0.90100
H     1.11259   0.51815   2.08032
H     1.01404   2.10286   1.12630
H    -1.44386   2.18404   1.52148
H    -1.32769   0.61371   2.50419
H     0.61343  -2.45597   0.21729
H    -0.28654  -1.81221   1.62167
H    -1.16943  -2.61087   0.27833
