23
Generated by autodE on: 2022-06-09. E = -684.240135 Ha
C    -0.79438  -0.61867   2.09354
N    -0.91950  -0.14807   0.71659
C     0.04442   0.05988  -0.16362
C     1.48788  -0.05573  -0.02543
C     2.15162   0.20621   1.18922
C     3.53966   0.09340   1.25837
C     4.27652  -0.27361   0.12815
C     3.62239  -0.51861  -1.08445
C     2.23693  -0.40680  -1.16726
O    -0.47816   0.40642  -1.34223
C    -1.91127   0.44999  -1.24930
O    -2.57622   0.74975  -2.22098
C    -2.16078   0.09597   0.09391
C    -3.39752  -0.01470   0.73383
N    -4.44257  -0.10305   1.25127
H    -1.67513  -1.22783   2.32880
H    -0.74556   0.23358   2.78456
H     0.10551  -1.23473   2.19069
H     1.59711   0.53281   2.06804
H     4.04931   0.30474   2.20060
H     5.36348  -0.36133   0.18993
H     4.19544  -0.79990  -1.97035
H     1.72386  -0.60057  -2.11004
