53
Generated by autodE on: 2022-06-09. E = -3999.695300 Ha. Imaginary frequency = -364.8 cm-1
C    -8.58438   4.43866   2.89825
N    -7.52531   3.45430   3.04677
C    -6.89114   3.18993   4.25019
C    -6.77568   4.13882   5.29176
N    -6.65591   4.91649   6.14918
C    -5.86658   2.19171   3.95501
O    -4.88857   1.80406   4.54136
O    -6.23182   1.69462   2.71267
C    -7.39373   2.31719   2.30225
C    -7.72666   2.18923   0.87294
C    -8.96002   2.62248   0.35723
C    -9.23278   2.48976  -1.00385
C    -8.29121   1.91221  -1.86098
C    -7.07120   1.46102  -1.34815
C    -6.78818   1.59544   0.01048
C    -8.66319   1.11864   3.54435
C    -8.41945   1.45333   4.72885
C    -8.67951   1.34132   6.17323
Br   -6.92808   0.76081   7.01438
C    -9.14691   2.66490   6.77953
C    -9.97919   3.48731   6.00643
C   -10.47066   4.68959   6.51948
C   -10.14771   5.08044   7.82126
C    -9.34621   4.24874   8.60895
C    -8.85307   3.04787   8.09370
C    -9.73938   0.25317   6.47138
C    -9.43985  -1.21353   6.15242
C    -9.05947  -1.59600   4.71532
C    -9.98949  -1.03360   3.62596
C    -9.34394   0.04596   2.77574
F   -10.29869   0.58351   1.94393
F    -8.41593  -0.54130   1.93841
H    -9.56816   3.98079   3.07234
H    -8.54817   4.86778   1.89012
H    -8.42239   5.23565   3.63260
H    -9.72312   3.02876   1.01713
H   -10.19437   2.82977  -1.39411
H    -8.51138   1.80697  -2.92572
H    -6.33277   1.00289  -2.00973
H    -5.83608   1.24414   0.40735
H   -10.24373   3.18598   4.99309
H   -11.10507   5.32227   5.89441
H   -10.52162   6.02541   8.22205
H    -9.09327   4.53834   9.63152
H    -8.21549   2.41827   8.71435
H   -10.64344   0.58579   5.93484
H    -9.97899   0.33186   7.54274
H    -8.64940  -1.57367   6.82882
H   -10.35344  -1.76686   6.42891
H    -8.02046  -1.29657   4.50715
H    -9.06242  -2.69475   4.65670
H   -10.31075  -1.81635   2.92242
H   -10.90141  -0.59810   4.06015
