47
Generated by autodE on: 2022-06-22. E = -923.825668 Ha
C    -0.56878   3.52692  -0.73182
O    -0.85566   2.17610  -0.32985
C    -1.20512   1.33241  -1.28527
O    -1.34102   1.63150  -2.45372
C    -1.36166  -0.11426  -0.78855
C    -2.44606  -0.71830  -1.61469
N    -3.34654  -1.21719  -2.15165
N    -1.62025  -0.25239   0.61966
C    -2.87727   0.27952   1.11056
C    -1.19289  -1.59894   1.10094
C    -0.52178  -1.45232   2.47097
C    -2.36219  -2.59059   1.22400
C    -0.21909  -2.07531  -0.00918
C     0.00664  -0.91086  -0.99166
C     0.19570  -1.39061  -2.43713
C     1.17203  -0.00550  -0.65581
C     2.07525  -0.15177   0.33074
C     3.19021   0.76038   0.52965
C     4.11402   0.70784   1.51899
C     4.14012  -0.33211   2.60401
C     5.21316   1.73004   1.59998
H    -1.45097   3.97845  -1.20642
H    -0.31048   4.06367   0.18758
H     0.27708   3.53935  -1.43380
H    -3.77045  -0.23159   0.70113
H    -2.95519   1.34799   0.86220
H    -2.90900   0.19380   2.20573
H    -0.16166  -2.42958   2.82812
H     0.32939  -0.75995   2.42660
H    -1.23798  -1.06771   3.21403
H    -1.96968  -3.58756   1.47711
H    -3.06347  -2.29692   2.01924
H    -2.92122  -2.67733   0.28088
H    -0.67841  -2.90542  -0.56317
H     0.72603  -2.45209   0.40053
H     1.13604  -1.95689  -2.51007
H    -0.62559  -2.04805  -2.75717
H     0.25349  -0.53981  -3.13254
H     1.31246   0.82918  -1.35339
H     1.98214  -0.98788   1.02589
H     3.27266   1.57465  -0.20030
H     3.31931  -1.05821   2.54184
H     5.09410  -0.88790   2.57878
H     4.09438   0.15166   3.59559
H     5.17552   2.27018   2.56300
H     5.15594   2.46693   0.78538
H     6.20407   1.24300   1.56161
