23
Generated by autodE on: 2022-06-22. E = -351.521383 Ha
C     3.29984   0.25571   1.82882
C     2.46174   0.04157   0.79076
C     2.98303  -0.34116  -0.57081
C     1.01876   0.18043   0.97693
C     0.07622  -0.00306   0.01836
C    -1.34469   0.14816   0.25685
C    -2.34575  -0.01143  -0.64543
C    -2.13837  -0.38194  -2.08653
C    -3.78098   0.17892  -0.24333
H     2.91841   0.53372   2.81622
H     4.38340   0.15904   1.71726
H     2.57521  -1.31359  -0.89343
H     4.08006  -0.40886  -0.57263
H     2.67999   0.39504  -1.33379
H     0.69075   0.45853   1.98581
H     0.39551  -0.28047  -0.98987
H    -1.62643   0.42130   1.28100
H    -1.08354  -0.50386  -2.36421
H    -2.66633  -1.32386  -2.31860
H    -2.58074   0.38599  -2.74544
H    -4.36505  -0.73998  -0.43134
H    -4.25585   0.97087  -0.85006
H    -3.88377   0.44533   0.81887
