24
Generated by autodE on: 2022-06-22. E = -572.272455 Ha
C     2.98213  -0.71158  -1.80245
O     2.26752  -0.33011  -0.62767
C     0.90583  -0.35999  -0.70948
O     0.32752  -0.65859  -1.75616
C     0.28504  -0.01795   0.53142
C     1.02041   0.16400   1.71079
N     1.62329   0.31674   2.70518
N    -1.14004  -0.02642   0.62018
C    -1.73135  -0.95750   1.59647
C    -1.89256   0.65839  -0.20698
C    -3.36177   0.40937  -0.27404
C    -1.31909   1.71031  -1.08080
H     4.04693  -0.62090  -1.55356
H     2.75519  -1.75059  -2.08726
H     2.74041  -0.04903  -2.64751
H    -2.67914  -0.56865   1.98320
H    -1.02753  -1.07426   2.42803
H    -1.88908  -1.93734   1.12259
H    -3.61127  -0.65589  -0.17786
H    -3.76002   0.79417  -1.22139
H    -3.86617   0.95167   0.54552
H    -0.37432   2.10129  -0.67884
H    -2.05691   2.51617  -1.20497
H    -1.11033   1.28738  -2.07774
