21
Generated by autodE on: 2022-07-27. E = -516.609150 Ha
C    -3.12021   1.01622  -0.94388
C    -2.28388   1.02985   0.27904
C    -2.65895   1.55005   1.51857
N    -3.00595   1.99581   2.54937
O    -1.04697   0.50964   0.25314
C    -0.44220  -0.03964  -0.75577
C     0.88881  -0.54055  -0.58346
C     1.57999  -0.45767   0.64962
C     2.87216  -0.96036   0.76151
C     3.50376  -1.55335  -0.34137
C     2.82863  -1.64025  -1.56519
C     1.53483  -1.14059  -1.68992
H    -3.28800  -0.01715  -1.30524
H    -4.09480   1.47838  -0.74072
H    -2.63342   1.56928  -1.77079
H    -0.96322  -0.10595  -1.71255
H     1.09119   0.00349   1.50959
H     3.39710  -0.89123   1.71719
H     4.51862  -1.94562  -0.24558
H     3.31616  -2.10150  -2.42714
H     1.00640  -1.20816  -2.64392
