30
Generated by autodE on: 2022-05-26. E = -896.149276 Ha
C    -1.51625  -3.01336   0.69130
C    -1.69260  -1.70245  -0.00570
O    -2.19674  -1.59346  -1.11094
C    -1.18759  -0.46091   0.71915
C    -2.16725   0.73921   0.68583
C    -1.25062   1.81265   0.07246
C    -1.61093   3.21571   0.27175
N    -1.92120   4.31772   0.44162
O    -1.12691   1.53976  -1.34664
C    -0.26590   0.48077  -1.41975
O     0.08191  -0.01976  -2.44911
C     0.09696   0.17460   0.05041
C     1.40943  -0.49532   0.30652
C     1.73619  -1.67671  -0.37606
C     2.94713  -2.32094  -0.11410
C     3.83721  -1.79192   0.82574
C     3.51085  -0.61516   1.50576
C     2.29949   0.03263   1.25030
O     0.02874   1.51778   0.57469
H    -0.45419  -3.14658   0.95590
H    -2.07677  -2.99442   1.64129
H    -1.86311  -3.84155   0.06046
H    -0.89846  -0.70045   1.74838
H    -2.47720   1.03721   1.69391
H    -3.04556   0.57653   0.05125
H     1.04866  -2.09188  -1.11418
H     3.19551  -3.23997  -0.64953
H     4.78462  -2.29703   1.02746
H     4.20199  -0.19643   2.24076
H     2.04554   0.95015   1.78203
