42
Generated by autodE on: 2022-06-19. E = -995.510325 Ha
C     4.29910   2.60452   0.33248
N     3.05182   1.87687   0.24042
C     2.92055   0.69029  -0.36936
O     3.83105   0.06849  -0.93014
C     1.53582   0.10437  -0.33208
N     0.56102   0.65428   0.27579
C    -0.62321  -0.21743   0.21193
C    -0.77788  -0.90995   1.60012
C    -0.02656  -0.32612   2.76186
O    -1.52647  -1.85826   1.73768
C    -1.89717   0.60974   0.01318
C    -1.81843   1.98049  -0.26945
C    -2.97607   2.72690  -0.50875
C    -4.23099   2.11445  -0.46816
C    -4.31830   0.74833  -0.18219
C    -3.16261   0.00257   0.05920
C    -0.31651  -1.21399  -1.00946
C    -0.75220  -0.55292  -2.32657
C    -0.92245  -2.61564  -0.94623
C     1.25126  -1.21840  -0.98190
C     1.84786  -2.36176  -0.19025
O     2.20612  -2.27382   0.96647
H     4.64022   2.67735   1.37753
H     5.06224   2.07652  -0.25150
H     4.18526   3.62415  -0.06615
H     2.21719   2.25754   0.67864
H    -0.35665  -0.81299   3.68864
H     1.05254  -0.48688   2.61939
H    -0.18760   0.76065   2.81582
H    -0.84338   2.46484  -0.30852
H    -2.89262   3.79385  -0.72948
H    -5.13584   2.69719  -0.65614
H    -5.29334   0.25673  -0.14457
H    -3.24631  -1.05882   0.29008
H    -0.35132   0.46591  -2.43050
H    -1.84703  -0.49826  -2.39750
H    -0.38403  -1.15419  -3.17117
H    -0.59864  -3.17994  -1.83503
H    -0.62362  -3.18062  -0.05521
H    -2.02016  -2.56618  -0.96615
H     1.65952  -1.28641  -2.00094
H     1.93539  -3.32521  -0.74136
