14
Generated by autodE on: 2022-06-19. E = -270.683215 Ha
C    -1.76790  -1.51943   0.29518
C    -0.74429  -0.44773   0.09031
C    -1.27315   0.94026  -0.13227
C     0.58305  -0.74941   0.11195
C     1.67439   0.19567  -0.07052
O     1.57447   1.40479  -0.26692
H    -1.31998  -2.51037   0.45177
H    -2.40377  -1.26847   1.16251
H    -2.44620  -1.56165  -0.57517
H    -0.92203   1.34555  -1.09449
H    -0.89784   1.63160   0.63903
H    -2.37191   0.95395  -0.11852
H     0.88638  -1.78702   0.27944
H     2.68985  -0.26718  -0.01883
