28
Generated by autodE on: 2022-06-19. E = -724.752186 Ha
C     4.27608   0.25688   0.68348
N     3.85159  -1.07597   0.28871
C     2.60201  -1.55305   0.36992
O     2.23898  -2.69283   0.06864
C     1.58896  -0.62424   0.91007
N     0.67596   0.02027   0.49632
C    -0.31257   0.78093   0.10751
C     0.06180   2.19810  -0.08085
C    -0.91852   3.15002  -0.71373
O     1.18490   2.58698   0.25009
C    -1.60733   0.11898  -0.16144
C    -2.84119   0.76927   0.03034
C    -4.04165   0.09991  -0.21729
C    -4.03855  -1.23054  -0.64576
C    -2.81872  -1.89354  -0.81887
C    -1.61668  -1.22813  -0.58177
H     3.42951   0.95610   0.64677
H     5.03996   0.61950  -0.01749
H     4.69850   0.26672   1.70106
H     4.55347  -1.74082  -0.03017
H    -1.60787   3.53981   0.05315
H    -0.35753   3.99780  -1.12948
H    -1.52342   2.67215  -1.49633
H    -2.87191   1.79277   0.40116
H    -4.98816   0.62268  -0.06054
H    -4.98016  -1.74982  -0.83811
H    -2.80180  -2.93526  -1.14779
H    -0.67022  -1.75539  -0.72360
