42
Generated by autodE on: 2022-06-19. E = -995.432804 Ha. Imaginary frequency = -348.1 cm-1
C     4.43166   2.65080  -0.11294
N     3.10941   2.05382  -0.17695
C     2.83912   0.86714   0.37993
O     3.64691   0.13618   0.95678
C     1.44812   0.38284   0.19886
N     0.38372   0.54653   0.74473
C    -0.86980   0.04404   0.77388
C    -1.06543  -1.08434   1.69193
C     0.13601  -1.56570   2.47129
O    -2.15512  -1.65569   1.80820
C    -1.93034   0.86627   0.17698
C    -1.59242   2.08222  -0.45875
C    -2.56216   2.85603  -1.09302
C    -3.89851   2.44119  -1.11158
C    -4.24787   1.24339  -0.48194
C    -3.28242   0.46192   0.15587
C    -0.17247  -1.55099  -1.25589
C    -1.05544  -0.86012  -2.25311
C    -0.70024  -2.85513  -0.73777
C     1.18764  -1.18092  -1.23396
C     2.29326  -2.02931  -0.76125
O     2.23663  -2.94210   0.05285
H     4.59536   3.17497   0.84272
H     4.53914   3.37023  -0.93412
H     5.19584   1.86872  -0.21488
H     2.34263   2.58649  -0.58007
H     0.57330  -0.75257   3.07093
H    -0.17844  -2.38592   3.12892
H     0.92369  -1.92989   1.79343
H    -0.55683   2.42682  -0.45156
H    -2.27150   3.79238  -1.57547
H    -4.65866   3.04740  -1.60957
H    -5.28743   0.90641  -0.48685
H    -3.56451  -0.46978   0.63787
H    -0.74566   0.17860  -2.43526
H    -2.10887  -0.86618  -1.93844
H    -1.00406  -1.40272  -3.21607
H    -0.06456  -3.30587   0.02858
H    -0.77293  -3.56212  -1.58607
H    -1.72018  -2.74071  -0.34137
H     1.50214  -0.48157  -2.01527
H     3.27384  -1.76894  -1.22446
