41
Generated by autodE on: 2022-06-19. E = -1085.836667 Ha
C     3.64439   1.77382   1.39650
O     2.42117   1.07135   1.11905
C     2.19357   0.73996  -0.14878
O     2.95462   0.97007  -1.06240
C     0.86823   0.02290  -0.28169
C     0.45257  -0.40926  -1.69387
O     0.74234   0.03080  -2.77687
O    -0.40229  -1.43561  -1.50227
C    -0.52224  -1.61365  -0.02405
C    -0.99490  -3.01231   0.24807
N     0.79285  -1.24239   0.46311
C     1.88902  -2.18358   0.23228
C    -1.41733  -0.42090   0.46473
C    -1.80843  -0.63721   1.95364
N    -0.78579  -0.83241   2.80220
O    -2.98284  -0.61586   2.32598
C    -2.68889  -0.27695  -0.39701
C    -2.56591   0.69290  -1.53425
C    -1.71749   1.72873  -1.46713
N    -0.86357   1.93208  -0.37987
C     0.10267   3.01452  -0.49429
C    -0.39695   0.77177   0.33584
H     3.66376   2.72632   0.84827
H     3.64861   1.95377   2.47707
H     4.50923   1.16150   1.10516
H    -0.93419  -3.22699   1.32283
H    -0.37785  -3.73820  -0.29787
H    -2.03800  -3.12635  -0.07619
H     2.03341  -2.44038  -0.83262
H     1.69711  -3.10488   0.79710
H     2.81968  -1.74484   0.61790
H     0.15637  -0.94078   2.42936
H    -0.98537  -1.01910   3.77996
H    -2.99299  -1.26953  -0.76197
H    -3.49981   0.04694   0.27332
H    -3.22427   0.58562  -2.39766
H    -1.66150   2.48716  -2.25195
H     0.88239   2.81513  -1.25204
H    -0.41211   3.94390  -0.77596
H     0.59400   3.17768   0.47514
H    -0.06633   1.09384   1.32867
