21
Generated by autodE on: 2022-06-19. E = -628.122781 Ha
C     3.71242  -0.20434   0.26044
O     2.38359   0.30565   0.12212
C     1.38592  -0.60672   0.14141
O     1.60047  -1.80846   0.26509
C     0.09659   0.01327   0.00304
C    -0.21559   1.38178  -0.13394
O     0.38361   2.43940  -0.18575
O    -1.66230   1.39619  -0.22636
C    -2.11903   0.15362  -0.14903
C    -3.56865  -0.12546  -0.22097
N    -1.12764  -0.69807  -0.01307
C    -1.27877  -2.14552   0.10125
H     4.37516   0.66886   0.22710
H     3.83422  -0.73083   1.21891
H     3.95741  -0.89263  -0.56229
H    -4.10953   0.82482  -0.30231
H    -3.79920  -0.74973  -1.09839
H    -3.90641  -0.66098   0.67946
H    -0.86527  -2.48350   1.05868
H    -2.34283  -2.39627   0.04586
H    -0.73830  -2.63635  -0.71645
