57
Generated by autodE on: 2022-06-08. E = -1610.880055 Ha
C    -0.55536  -2.19258  -1.00871
N    -0.09968  -0.90106  -0.53614
C     0.95267  -0.97277   0.46909
C     2.25898  -1.52133  -0.06660
C     2.65681  -1.30263  -1.39365
C     3.89579  -1.76175  -1.84820
C     4.75778  -2.44078  -0.98025
C     4.36873  -2.66243   0.34460
C     3.12535  -2.20851   0.79432
C     1.05923   0.46399   1.03713
C     2.09656   1.39282   0.34331
O     1.42462   1.74062  -0.87983
C     0.26641   2.31464  -0.26822
C     0.92006   3.28107   0.70536
F     0.32231   4.37858   1.13075
C     2.07154   2.72428   1.09651
C     3.02203   3.12807   2.15341
F     4.29318   3.17704   1.70164
F     2.73477   4.33600   2.66656
F     3.02446   2.24630   3.18115
C    -0.27619   1.15702   0.62956
C    -1.12600   0.06348  -0.08801
C    -2.09510  -0.61819   0.90218
C    -1.82218  -0.68976   2.27808
C    -2.65002  -1.41440   3.14256
C    -3.76987  -2.08725   2.64957
C    -4.05078  -2.03145   1.28087
C    -3.22108  -1.30831   0.42166
C    -1.87458   0.68104  -1.26795
C    -3.00131   1.48426  -1.03059
C    -3.64193   2.14644  -2.07932
C    -3.16741   2.01305  -3.38936
C    -2.04395   1.21985  -3.63375
C    -1.39895   0.56405  -2.57908
H     0.27154  -2.71096  -1.51664
H    -0.91887  -2.85395  -0.19598
H    -1.36897  -2.07127  -1.73663
H     0.64571  -1.62965   1.30964
H     1.98619  -0.76491  -2.06499
H     4.19111  -1.58713  -2.88588
H     5.72678  -2.79908  -1.33612
H     5.03306  -3.19578   1.02906
H     2.81973  -2.38853   1.82868
H     1.23551   0.43767   2.11819
H     3.08554   0.96698   0.15190
H    -0.42163   2.75050  -0.99685
H    -0.83800   1.58485   1.46581
H    -0.95875  -0.17659   2.70101
H    -2.41479  -1.44768   4.20916
H    -4.41858  -2.65022   3.32483
H    -4.92189  -2.55365   0.87743
H    -3.45614  -1.27905  -0.64299
H    -3.37786   1.59728  -0.01186
H    -4.51576   2.76946  -1.87329
H    -3.67009   2.52689  -4.21221
H    -1.66069   1.11163  -4.65145
H    -0.50984  -0.03642  -2.76950
