41
Generated by autodE on: 2022-07-27. E = -866.783774 Ha
C     0.82311   0.14557  -2.07863
N     0.48070   0.10140  -0.64708
C     1.39020  -0.32909   0.24790
C     2.64223  -1.01849   0.08914
C     3.28700  -1.43777  -1.10850
C     4.51432  -2.09833  -1.06993
C     5.15768  -2.37069   0.14206
C     4.54177  -1.97090   1.33616
C     3.31736  -1.31537   1.31078
C    -0.81121   0.41207  -0.26876
C    -1.40997  -0.26044   0.89175
C    -2.26691   0.43328   1.77509
C    -2.90476  -0.21948   2.83355
C    -2.70355  -1.58434   3.05035
C    -1.84950  -2.29038   2.18798
C    -1.21266  -1.64376   1.13498
C    -1.51150   1.50687  -0.93916
C    -2.91538   1.47088  -1.12380
C    -3.58945   2.51486  -1.75251
C    -2.88968   3.63355  -2.22572
C    -1.50338   3.69208  -2.04858
C    -0.82567   2.65387  -1.40851
H     1.76738   0.68064  -2.23529
H     0.91204  -0.88443  -2.44864
H     0.02251   0.63631  -2.63412
H     1.07836  -0.17694   1.28013
H     2.83965  -1.25825  -2.08108
H     4.97633  -2.40562  -2.01174
H     6.12014  -2.88658   0.15731
H     5.02183  -2.17622   2.29642
H     2.84876  -1.01632   2.25177
H    -2.43174   1.50211   1.62869
H    -3.55846   0.35060   3.49894
H    -3.19940  -2.09513   3.87887
H    -1.68585  -3.36075   2.33813
H    -0.55232  -2.21678   0.48030
H    -3.47564   0.60067  -0.77671
H    -4.67256   2.45191  -1.88611
H    -3.42017   4.44984  -2.72123
H    -0.94358   4.56390  -2.39731
H     0.25175   2.73767  -1.25172
