41
Generated by autodE on: 2022-06-08. E = -866.790564 Ha
C    -0.31036  -1.66200  -2.67520
N     0.16234  -0.81311  -1.55931
C     1.47263  -0.49085  -1.61977
C     2.32128  -0.02723  -0.55843
C     2.05052  -0.17215   0.82866
C     2.97173   0.24954   1.78416
C     4.17731   0.85405   1.40538
C     4.46298   1.00711   0.04205
C     3.55674   0.57186  -0.92054
C    -0.73885  -0.35632  -0.62756
C    -1.85419  -1.22135  -0.24029
C    -3.12997  -0.68528   0.05864
C    -4.19178  -1.50977   0.42332
C    -4.02219  -2.89897   0.49877
C    -2.76802  -3.44786   0.21223
C    -1.69885  -2.62425  -0.14207
C    -0.56104   0.96196  -0.01482
C    -0.95602   1.19759   1.32096
C    -0.82527   2.45833   1.90803
C    -0.28428   3.52345   1.18448
C     0.12537   3.30635  -0.13971
C    -0.00085   2.05068  -0.72442
H     0.10036  -1.25095  -3.60774
H    -1.40261  -1.64133  -2.72676
H     0.04385  -2.69434  -2.55995
H     1.91769  -0.58820  -2.61126
H     1.12547  -0.64325   1.15603
H     2.74006   0.11334   2.84371
H     4.88388   1.20184   2.16231
H     5.40046   1.47344  -0.27169
H     3.79062   0.69413  -1.98135
H    -3.28626   0.39244  -0.01429
H    -5.16694  -1.06610   0.64022
H    -4.85742  -3.54350   0.78219
H    -2.61460  -4.52796   0.28083
H    -0.71993  -3.06999  -0.32659
H    -1.36486   0.37465   1.90941
H    -1.13912   2.60272   2.94505
H    -0.17372   4.50846   1.64362
H     0.54942   4.12891  -0.72138
H     0.33823   1.90728  -1.75185
