16
Generated by autodE on: 2022-06-08. E = -743.987472 Ha
F    -0.35303  -0.11648   2.30087
C    -0.59068   0.26150   1.06116
C     0.18041   0.19737  -0.02727
C     1.51919  -0.38783  -0.23132
F     1.46009  -1.49150  -1.01256
F     2.10070  -0.74972   0.92527
F     2.36161   0.46471  -0.85321
C    -0.77143   0.67365  -1.15582
C    -1.85171  -0.41705  -1.34333
C    -2.60035  -0.35632  -0.23877
C    -1.96760   0.77853   0.60175
O    -1.52942   1.66740  -0.43769
H    -0.29027   1.07987  -2.05140
H    -1.90929  -1.09844  -2.19112
H    -3.44037  -0.97296   0.07749
H    -2.58317   1.26932   1.36270
