48
Generated by autodE on: 2022-06-23. E = -1261.386311 Ha
C     2.98800  -2.05291   0.49023
N     1.59932  -1.73520   0.78136
C     1.26060  -1.41842   2.09399
C    -0.02665  -1.37046   2.47522
C    -1.06373  -1.77597   1.46704
C    -0.76819  -1.24729   0.04084
C    -1.54829  -2.04467  -1.02262
N    -2.83187  -2.31037  -0.73161
O    -1.02581  -2.40274  -2.08046
C     0.75969  -1.24123  -0.28796
C     0.97647   0.30235  -0.61299
C     2.37032   0.82804  -0.51993
C     2.79372   1.47177   0.64989
C     4.12314   1.88009   0.78199
C     5.03573   1.64814  -0.25153
C     4.61170   1.01056  -1.42208
C     3.28462   0.59910  -1.55792
O     0.07640   0.92961   0.31733
C    -1.09752   0.29846  -0.10560
C    -2.32747   0.85385   0.53777
C    -3.53825   0.90895  -0.16448
C    -4.68626   1.39541   0.46570
C    -4.63003   1.82693   1.79420
C    -3.41981   1.77468   2.49317
C    -2.26954   1.28869   1.86875
O    -1.10025   0.56748  -1.54902
C     0.20177   0.54585  -1.91714
O     0.57411   0.66231  -3.05429
H     3.68209  -1.22416   0.71168
H     3.09100  -2.30719  -0.57270
H     3.30389  -2.92781   1.08085
H     2.09516  -1.23003   2.77683
H    -0.31215  -1.08823   3.48867
H    -2.07013  -1.47015   1.78339
H    -1.08126  -2.87873   1.39376
H    -3.40191  -2.78638  -1.42468
H    -3.27680  -1.98255   0.11795
H     0.95884  -1.82675  -1.19076
H     2.08420   1.64139   1.46007
H     4.44730   2.37883   1.69831
H     6.07602   1.96472  -0.14592
H     5.32000   0.82666  -2.23316
H     2.96118   0.08873  -2.46503
H    -3.58168   0.57579  -1.20146
H    -5.62763   1.43943  -0.08639
H    -5.52912   2.20725   2.28454
H    -3.36959   2.11450   3.52997
H    -1.32567   1.24315   2.41336
