20
Generated by autodE on: 2022-06-23. E = -457.715323 Ha
C    -3.09757  -0.67515   0.24101
N    -1.83019  -0.01897  -0.03510
C    -1.82475   1.30062  -0.50407
C    -0.69192   1.98092  -0.74077
C     0.68184   1.39472  -0.52691
C     0.57610  -0.02363   0.00922
C     1.77789  -0.81180   0.32498
N     2.96744  -0.19878   0.10024
O     1.74084  -1.97499   0.77577
C    -0.63285  -0.61884   0.21449
H    -3.63898  -0.17313   1.06020
H    -2.91148  -1.71670   0.53139
H    -3.74200  -0.67096  -0.65227
H    -2.81320   1.73504  -0.66426
H    -0.76908   3.00689  -1.10793
H     1.25795   1.41784  -1.47490
H     1.26538   2.03614   0.16471
H     3.03832   0.73878  -0.27381
H     3.82132  -0.70768   0.30071
H    -0.67931  -1.63886   0.59922
