28
Generated by autodE on: 2022-06-23. E = -803.642154 Ha
O    -1.16827  -1.64399   2.41982
C    -0.66300  -1.01811   1.50635
O     0.81952  -0.83829   1.48868
C     1.13236  -0.14679   0.43594
C     2.47074   0.23958   0.07433
C     3.55087  -0.14462   0.89479
C     4.84431   0.23332   0.54658
C     5.06843   0.98971  -0.61016
C     3.99515   1.37139  -1.42547
C     2.69652   1.00103  -1.09094
O     0.08490   0.17006  -0.26759
C    -1.05666  -0.34668   0.35137
C    -2.34944  -0.12369  -0.24725
C    -2.48761   0.61891  -1.43972
C    -3.74761   0.82291  -2.00214
C    -4.89328   0.29584  -1.39597
C    -4.76385  -0.44182  -0.21301
C    -3.51102  -0.65289   0.36003
H     3.36543  -0.73289   1.79450
H     5.68367  -0.06195   1.17912
H     6.08550   1.28394  -0.87830
H     4.17497   1.96130  -2.32629
H     1.85534   1.29504  -1.72020
H    -1.60226   1.03578  -1.92259
H    -3.83436   1.40098  -2.92545
H    -5.87763   0.45808  -1.84056
H    -5.65042  -0.85938   0.27053
H    -3.41924  -1.22881   1.28176
