48
Generated by autodE on: 2022-06-23. E = -1261.355433 Ha. Imaginary frequency = -379.6 cm-1
C     2.98959  -1.95909   0.45526
N     1.60395  -1.63062   0.78129
C     1.28383  -1.31998   2.12092
C     0.01548  -1.32166   2.54715
C    -1.11398  -1.69596   1.62652
C    -0.74030  -1.47205   0.15862
C    -1.63080  -2.09511  -0.88133
N    -2.89285  -2.37316  -0.49465
O    -1.23330  -2.33701  -2.02826
C     0.64846  -1.64792  -0.15417
C     0.99237   0.88108  -0.86434
C     2.38725   1.10573  -0.61468
C     2.83576   1.43595   0.68338
C     4.19906   1.57121   0.94632
C     5.14139   1.38031  -0.06956
C     4.70269   1.06776  -1.36431
C     3.34522   0.93454  -1.64115
O     0.08362   1.06616   0.17300
C    -1.07376   0.50672  -0.24830
C    -2.30751   0.92081   0.44013
C    -3.54745   0.80591  -0.20723
C    -4.71737   1.16155   0.46526
C    -4.65824   1.63040   1.78169
C    -3.42170   1.74807   2.42609
C    -2.24833   1.39235   1.76157
O    -1.08351   0.51385  -1.61098
C     0.27439   0.58417  -2.03727
O     0.55908   0.39163  -3.21434
H     3.66661  -1.19804   0.86392
H     3.10834  -1.99725  -0.63279
H     3.25367  -2.93872   0.88479
H     2.14165  -1.09728   2.75569
H    -0.20010  -1.08327   3.59001
H    -2.02006  -1.13330   1.89614
H    -1.37511  -2.76116   1.78344
H    -3.54444  -2.71630  -1.19346
H    -3.26539  -2.06832   0.39663
H     0.94330  -1.96150  -1.15401
H     2.10927   1.57266   1.48479
H     4.52864   1.82055   1.95801
H     6.20851   1.47929   0.14148
H     5.43076   0.92220  -2.16620
H     3.00928   0.67801  -2.64629
H    -3.59035   0.44330  -1.23430
H    -5.68017   1.07374  -0.04278
H    -5.57617   1.90626   2.30570
H    -3.37108   2.11651   3.45294
H    -1.28367   1.47416   2.26466
