29
Generated by autodE on: 2022-10-21. E = -800.070461 Ha
C     5.33313  -0.00159   0.47171
N     3.90990   0.15381   0.69600
C     3.01505  -0.19245  -0.24871
O     3.33302  -0.64727  -1.35612
C     1.60819   0.00492   0.14376
O     1.28538   0.40335   1.37780
C    -0.13022   0.50445   1.48389
O    -0.63852   0.86702   2.53615
C    -0.61117   0.10823   0.21008
C    -2.01258  -0.00263  -0.18233
C    -2.48908  -0.99875  -1.06089
C    -3.84526  -1.07412  -1.38199
C    -4.75878  -0.17405  -0.82498
C    -4.30186   0.80560   0.06328
C    -2.94711   0.89423   0.38035
N     0.50157  -0.17181  -0.57227
C     0.46935  -0.51210  -1.99774
H     5.86904   0.32106   1.37193
H     5.67088   0.60727  -0.38193
H     5.58984  -1.05175   0.26063
H     3.57935   0.52170   1.58236
H    -1.80468  -1.73744  -1.47743
H    -4.19153  -1.85386  -2.06457
H    -5.81990  -0.23947  -1.07597
H    -5.00578   1.51312   0.50809
H    -2.59890   1.66477   1.06896
H     0.40806  -1.60064  -2.12452
H     1.38387  -0.14361  -2.46678
H    -0.40864  -0.03614  -2.44568
