50
Generated by autodE on: 2022-10-21. E = -1187.492750 Ha. Imaginary frequency = -362.4 cm-1
C    -5.20799   1.15539  -0.56654
N    -3.85379   1.02969  -0.06335
C    -2.81811   0.81360  -0.88660
O    -2.92570   0.71768  -2.11517
C    -1.49707   0.61144  -0.20847
O    -1.49324   0.75128   1.16515
C    -0.16036   0.94452   1.56551
O     0.11837   0.92605   2.76067
C     0.58425   1.13282   0.36447
C     2.01532   1.39683   0.27109
C     2.75368   1.22394  -0.92244
C     4.12995   1.45275  -0.95545
C     4.81566   1.85171   0.19533
C     4.10094   2.02131   1.38659
C     2.72552   1.80197   1.42709
N    -0.35010   1.19891  -0.67232
C    -0.15206   1.76492  -1.99822
C    -0.13338  -1.69362   0.53324
O    -0.20040  -1.86609   1.86138
C     1.02930  -2.06995   2.56212
C     0.89338  -2.35565  -0.35763
C     0.29822  -3.78726  -0.59341
C    -0.95962  -3.50221  -1.46903
C    -0.93911  -1.95188  -1.62342
C     0.57881  -1.70064  -1.70983
C    -1.26918  -1.38287  -0.24245
H    -5.33300   2.07363  -1.16278
H    -5.90002   1.18858   0.28324
H    -5.46563   0.29746  -1.20573
H    -3.67178   1.13008   0.93012
H     2.26399   0.89286  -1.83572
H     4.67124   1.30791  -1.89361
H     5.89349   2.02648   0.16558
H     4.61979   2.33409   2.29623
H     2.18225   1.93789   2.36100
H     0.18770   1.01694  -2.72978
H     0.59575   2.56318  -1.92659
H    -1.09473   2.19237  -2.35302
H     1.75419  -1.28151   2.31246
H     0.78925  -2.02278   3.63123
H     1.45568  -3.05693   2.32418
H     1.93355  -2.33913  -0.01345
H     1.03566  -4.40247  -1.13031
H     0.06118  -4.29244   0.35363
H    -1.89169  -3.85172  -1.00171
H    -0.87584  -3.98555  -2.45404
H    -1.55626  -1.56194  -2.44152
H     1.05105  -2.23036  -2.55014
H     0.86014  -0.64819  -1.75241
H    -2.25418  -1.56970   0.19462
