14
Generated by autodE on: 2022-06-01. E = -586.283478 Ha
C    -3.17377   0.38669   0.01635
C    -1.84258   0.95365   0.43046
O    -1.71913   2.00909   1.04713
C    -0.67864   0.17360   0.05530
O     0.57727   0.64497   0.40881
C     1.46137  -0.19321  -0.01660
C     2.84888   0.02314   0.19819
N     3.98572   0.18690   0.36661
O     0.98178  -1.21059  -0.63385
C    -0.54540  -1.04227  -0.63600
O    -1.21830  -1.87860  -1.16152
H    -3.22220   0.28423  -1.07966
H    -3.97360   1.05252   0.36452
H    -3.31216  -0.62076   0.44005
