20
Generated by autodE on: 2022-06-01. E = -3084.309989 Ha
F    -0.49575  -3.45601  -0.32210
C    -0.65404  -2.27128  -0.99070
F    -0.66415  -2.60141  -2.32658
C     0.44165  -1.33375  -0.72924
C     0.85349  -0.20565  -0.55897
C     0.87002   1.22546  -0.37925
Br    1.18682   1.63077   1.56420
C    -0.49294   1.77122  -0.84206
C    -1.74184   1.01047  -0.35452
C    -2.22930  -0.21843  -1.17407
C    -1.98129  -1.62863  -0.60358
H     1.70110   1.72933  -0.88621
H    -0.54814   2.82603  -0.53397
H    -0.46351   1.76803  -1.94553
H    -1.61169   0.73087   0.70470
H    -2.56054   1.74536  -0.36283
H    -1.83814  -0.16935  -2.20425
H    -3.32081  -0.12586  -1.27374
H    -2.02335  -1.61545   0.49652
H    -2.75957  -2.32435  -0.95616
