34
Generated by autodE on: 2022-06-01. E = -3670.594996 Ha. Imaginary frequency = -245.7 cm-1
C     0.07905  -2.11431   3.12739
C     0.95717  -1.03974   2.55735
O     1.41669  -0.10926   3.21004
C     1.28693  -1.12155   1.13636
O     0.84435  -2.14863   0.35928
C     1.26244  -1.91338  -0.86348
C     1.06011  -2.87489  -1.88876
N     0.87227  -3.65372  -2.72898
O     2.25670  -1.04094  -0.88981
C     2.27385  -0.38397   0.39770
O     2.98756   0.55752   0.60366
C    -0.34292  -0.20924  -1.22004
C    -0.36467   0.37692  -0.13398
C    -0.59825   1.48960   0.76434
Br   -1.90467   0.93697   2.17974
C    -1.18649   2.65797  -0.04226
C    -0.25336   3.28191  -1.09447
C     0.29708   2.42727  -2.25622
C    -0.70307   1.49877  -2.97863
C    -0.47509   0.02132  -2.67939
F    -1.47805  -0.73983  -3.20695
F     0.67621  -0.39927  -3.30949
H     0.63411  -3.06751   3.13687
H    -0.20821  -1.84504   4.15116
H    -0.81568  -2.26297   2.50509
H     0.30702   1.76741   1.32055
H    -2.11765   2.30851  -0.51377
H    -1.46603   3.44606   0.67287
H     0.60743   3.73894  -0.57921
H    -0.82825   4.11848  -1.52555
H     1.15973   1.83678  -1.91059
H     0.71116   3.13125  -2.99323
H    -0.62782   1.59939  -4.07191
H    -1.74319   1.72452  -2.70048
