44
Generated by autodE on: 2022-06-03. E = -1861.748238 Ha
C    -0.81638   4.05046   1.52781
C    -0.47109   2.86925   0.67606
O    -0.31409   2.93457  -0.53005
C    -0.20137   1.54747   1.44242
O     1.15497   1.56952   1.84250
C     1.94238   0.68994   1.01040
C     2.80294  -0.13449   1.96909
C     2.78932   1.55763   0.07169
C     0.88266  -0.15198   0.27668
C    -0.34702   0.32634   0.56053
C    -1.75306  -0.13493   0.21939
Cl   -2.95827   1.17339   0.72415
Cl   -2.01116  -0.30259  -1.57597
C    -2.23231  -1.40645   0.92008
C    -1.50223  -2.70739   0.59177
C    -0.09271  -2.84235   1.18953
C     1.08602  -2.72698   0.22987
C     1.30288  -1.37334  -0.53647
C     2.74078  -1.38679  -0.86439
N     3.84244  -1.52914  -1.20084
C     0.71013  -1.39875  -2.01087
C     0.90998  -0.14906  -2.82191
O     0.26605  -2.42813  -2.46209
H    -1.76963   3.86008   2.04722
H    -0.04538   4.16591   2.30752
H    -0.88787   4.96317   0.92254
H    -0.83375   1.50268   2.34155
H     3.50639  -0.78995   1.43989
H     3.39075   0.55655   2.59195
H     2.16595  -0.74451   2.62593
H     3.46642   0.96235  -0.55177
H     3.40130   2.23596   0.68535
H     2.14326   2.16045  -0.57995
H    -3.29848  -1.51398   0.67449
H    -2.16631  -1.20756   2.00185
H    -1.48531  -2.86661  -0.49732
H    -2.13736  -3.50812   0.99943
H     0.00500  -3.84234   1.64035
H     0.03203  -2.13172   2.02205
H     1.02961  -3.50625  -0.54321
H     1.99929  -2.91678   0.81016
H     0.31025  -0.20286  -3.73869
H     0.66359   0.75454  -2.25023
H     1.97595  -0.08908  -3.09838
