26
Generated by autodE on: 2022-06-03. E = -1476.393090 Ha
C     2.97339   1.40978   0.77683
C     3.12219   0.11671   0.04244
O     4.18139  -0.37085  -0.28531
C     1.80191  -0.61308  -0.35440
C     2.04618  -2.06112  -0.40370
N     2.22272  -3.20558  -0.46053
C     0.64661  -0.32253   0.48854
C    -0.48938  -0.03436   0.79050
C    -1.85491   0.36269   0.53097
Cl   -3.02232  -0.42830   1.67777
Cl   -1.98414   2.17420   0.75408
C    -2.20965  -0.01551  -0.91803
C    -1.19320   0.42417  -1.98986
C     0.01216  -0.50631  -2.30004
C     1.40741  -0.09117  -1.79645
H     3.92482   1.95615   0.77314
H     2.68185   1.18330   1.81672
H     2.16590   2.02007   0.34568
H    -2.32279  -1.11078  -0.93708
H    -3.19766   0.41999  -1.12777
H    -0.83918   1.44387  -1.76682
H    -1.77631   0.51427  -2.91827
H     0.10635  -0.55066  -3.39535
H    -0.20942  -1.54010  -1.98559
H     1.48712   1.00601  -1.76908
H     2.18780  -0.46162  -2.47662
