18
Generated by autodE on: 2022-06-03. E = -385.232545 Ha
C     2.33937  -0.52006   0.49419
C     1.70529   0.53672  -0.40042
O     2.43461   1.33837  -1.04066
C     0.30351   0.58709  -0.48242
O    -0.39830  -0.32554   0.25645
C    -1.66948  -0.46258   0.33894
C    -2.15835  -1.54504   1.22218
C    -2.56233   0.43117  -0.42357
H     3.43172  -0.44796   0.40201
H     2.01827  -1.53554   0.21318
H     2.05784  -0.37091   1.54920
H    -0.24911   1.30385  -1.08602
H    -1.32345  -2.08135   1.69115
H    -2.77628  -2.25276   0.64190
H    -2.81660  -1.12464   2.00270
H    -2.33913   0.35865  -1.50456
H    -2.37916   1.48418  -0.13818
H    -3.61480   0.18022  -0.24717
