18
Generated by autodE on: 2022-07-27. E = -385.230413 Ha
C    -2.18871   1.75942  -0.97927
C    -1.17071   0.68916  -0.62781
O    -0.76614  -0.09673  -1.53774
C    -0.76740   0.64549   0.70627
O     0.06838  -0.37530   1.17182
C     1.18071  -0.72021   0.62755
C     1.80033  -1.94895   1.17019
C     1.81592   0.09193  -0.41308
H    -2.51121   2.35616  -0.11388
H    -3.07056   1.28663  -1.44211
H    -1.75245   2.43583  -1.73323
H    -1.30478   1.10916   1.53035
H     1.85020  -2.70710   0.36830
H     2.84059  -1.74325   1.47079
H     1.22302  -2.34777   2.01375
H     2.87694  -0.16260  -0.52095
H     1.66824   1.16000  -0.16338
H     1.27039  -0.05306  -1.36685
