44
Generated by autodE on: 2022-06-03. E = -1861.610991 Ha. Imaginary frequency = -195.5 cm-1
C    -1.33290   3.63718   0.37405
C    -0.06972   2.80004   0.28997
O     0.52032   2.73037  -0.80760
C     0.27179   2.11644   1.50059
O     1.40149   1.46412   1.85166
C     2.44576   1.00132   1.24506
C     3.24781   0.06991   2.08801
C     3.07513   1.65979   0.07645
C     0.60363  -0.56419   0.07998
C    -0.45281  -0.10241   0.52745
C    -1.91087  -0.20192   0.59630
Cl   -2.69400   0.83217   1.87254
Cl   -2.55230   0.38469  -1.03873
C    -2.40225  -1.63995   0.83060
C    -1.73879  -2.72600  -0.02278
C    -0.37196  -3.21736   0.51176
C     0.86099  -3.04233  -0.37676
C     1.21691  -1.57821  -0.81187
C     2.67778  -1.50038  -0.94300
N     3.82746  -1.50641  -1.09827
C     0.62778  -1.23769  -2.25585
C     0.94796   0.11299  -2.81361
O    -0.05707  -2.05404  -2.82479
H    -1.76148   3.69824   1.38172
H    -1.09031   4.65182   0.01920
H    -2.08603   3.21848  -0.31106
H    -0.33909   2.26263   2.38618
H     3.64192  -0.75508   1.47836
H     4.12450   0.60745   2.49475
H     2.64931  -0.32815   2.91702
H     3.83461   1.00731  -0.36806
H     3.59080   2.55893   0.46967
H     2.33950   2.00737  -0.65730
H    -3.49012  -1.62643   0.67189
H    -2.23474  -1.85592   1.89725
H    -1.66599  -2.38707  -1.06566
H    -2.43794  -3.57529  -0.04046
H    -0.43675  -4.29823   0.71370
H    -0.17051  -2.75075   1.48838
H     0.76257  -3.62423  -1.30390
H     1.72502  -3.44650   0.16921
H     0.60620   0.16919  -3.85467
H     0.44633   0.88932  -2.21434
H     2.02767   0.31589  -2.75274
