49
Generated by autodE on: 2022-06-21. E = -1020.955663 Ha
C    -0.41311  -4.40219   0.05379
C     0.46932  -3.36289   0.68044
O     1.62308  -3.59387   1.00898
C    -0.10847  -1.98896   0.89708
N    -1.20419  -1.65680   0.32660
C    -1.51559  -0.25700   0.64719
C    -3.00890  -0.13401   1.01421
C    -3.98630  -0.93285   0.20330
O    -3.35568   0.61085   1.91285
C    -1.31325   0.63992  -0.58352
C    -0.76928   0.14767  -1.77544
C    -0.53628   1.00697  -2.85389
C    -0.85757   2.36315  -2.75850
C    -1.41238   2.85786  -1.57355
C    -1.63779   2.00240  -0.49361
C    -0.57823   0.11310   1.82226
C     0.58704  -0.89574   1.72099
C     1.04031  -1.37831   3.10866
C     1.78144  -0.42721   0.90965
C     1.91710   0.75007   0.26892
C     3.07717   1.09340  -0.53550
C     3.26876   2.24102  -1.23042
C     4.51455   2.44781  -2.04563
C     2.29427   3.38403  -1.26833
H     0.13822  -5.34658  -0.03789
H    -0.75189  -4.06317  -0.93690
H    -1.31662  -4.54874   0.66640
H    -3.93438  -1.98481   0.52735
H    -5.00408  -0.55413   0.36428
H    -3.72641  -0.91354  -0.86476
H    -0.50628  -0.90676  -1.85663
H    -0.09697   0.61075  -3.77244
H    -0.67270   3.03346  -3.60090
H    -1.66454   3.91719  -1.48573
H    -2.06104   2.39898   0.43147
H    -1.11414  -0.05278   2.76605
H    -0.25624   1.15970   1.80689
H     0.21198  -1.87574   3.63731
H     1.36288  -0.51326   3.70860
H     1.87988  -2.08234   3.03772
H     2.58551  -1.16613   0.82718
H     1.11734   1.48965   0.33190
H     3.86223   0.32955  -0.58819
H     4.26186   2.63049  -3.10557
H     5.19361   1.58406  -1.99414
H     5.06245   3.34430  -1.70392
H     1.95119   3.55959  -2.30290
H     2.78954   4.31669  -0.94558
H     1.40690   3.23078  -0.64261
