26
Generated by autodE on: 2022-07-27. E = -669.357281 Ha
C     1.90445  -4.04455   0.66509
C     2.03453  -2.76867  -0.11720
O     2.94308  -2.52348  -0.91180
C     1.00658  -1.80271   0.09513
N     0.21827  -0.94747   0.28656
C    -0.65338   0.01964   0.47679
C    -1.71225  -0.27521   1.45764
C    -1.67495  -1.63452   2.12004
O    -2.59508   0.53614   1.73661
C    -0.46946   1.25987  -0.29955
C     0.61469   1.37171  -1.19951
C     0.81096   2.53346  -1.94352
C    -0.06612   3.61594  -1.81341
C    -1.14199   3.51734  -0.92711
C    -1.34730   2.35777  -0.17718
H     2.84910  -4.22712   1.20099
H     1.75090  -4.87547  -0.04285
H     1.06887  -4.01443   1.37874
H    -2.51531  -1.70891   2.82125
H    -0.72831  -1.78300   2.66386
H    -1.74940  -2.43958   1.37133
H     1.31558   0.54368  -1.32086
H     1.65790   2.59240  -2.63131
H     0.08934   4.52623  -2.39688
H    -1.83600   4.35390  -0.81404
H    -2.18688   2.29187   0.50920
