26
Generated by autodE on: 2022-06-21. E = -669.357180 Ha
C     4.48430   0.43156  -0.15127
C     3.34971  -0.54990  -0.09673
O     3.46805  -1.76839  -0.23032
C     2.05571  -0.00472   0.17722
N     0.96006   0.38152   0.11089
C    -0.29405   0.76626   0.07375
C    -0.50627   2.22491   0.08704
C     0.72850   3.09652   0.13404
O    -1.62929   2.72618   0.06384
C    -1.32327  -0.29010   0.02583
C    -2.70259   0.00584   0.04579
C    -3.64889  -1.01969   0.00152
C    -3.25188  -2.35789  -0.06302
C    -1.88663  -2.66359  -0.08383
C    -0.93425  -1.64730  -0.04110
H     5.04338   0.37362   0.79805
H     5.16406   0.14227  -0.96644
H     4.13421   1.46402  -0.29216
H     1.39119   2.89192  -0.72173
H     0.41959   4.14899   0.11603
H     1.30959   2.90050   1.04983
H    -3.02270   1.04282   0.09693
H    -4.71135  -0.76458   0.01900
H    -3.99720  -3.15572  -0.09833
H    -1.55749  -3.70412  -0.13606
H     0.12354  -1.91600  -0.06489
