13
Generated by autodE on: 2022-06-04. E = -5454.682428 Ha
Br    1.29010  -1.65762  -0.36842
C    -0.30680  -0.70226  -0.24973
C    -0.52071   0.60906  -0.08875
Br    0.69120   2.01582   0.08264
C    -2.05007   0.73468   0.13622
C    -2.35209   0.11118   1.52018
C    -2.13869  -1.19729   1.35947
C    -1.70994  -1.34985  -0.11974
O    -2.50308  -0.31839  -0.73175
H    -2.50259   1.70254  -0.10357
H    -2.62329   0.67357   2.41267
H    -2.18561  -2.01019   2.08294
H    -1.84500  -2.32524  -0.59840
