19
Generated by autodE on: 2022-06-04. E = -643.820681 Ha
C     1.97052  -2.24768  -0.51482
C     2.26709  -0.96837   0.20782
O     3.35807  -0.67979   0.68061
C     1.16195   0.00227   0.35582
C     1.37553   1.23215   1.02482
N     1.60569   2.22954   1.58079
O     0.01346  -0.33492  -0.16211
C    -1.17250   0.19990  -0.25170
C    -1.49232   1.46236   0.30512
N    -1.80685   2.49333   0.74673
C    -2.20069  -0.58055  -0.97204
C    -1.79073  -1.90720  -1.53739
O    -3.32393  -0.10555  -1.07027
H     1.15924  -2.79280  -0.00733
H     1.62794  -2.03575  -1.53990
H     2.87860  -2.86222  -0.54060
H    -0.96528  -1.77667  -2.25470
H    -1.42339  -2.56614  -0.73507
H    -2.65383  -2.36516  -2.03564
