32
Generated by autodE on: 2022-06-04. E = -6098.518669 Ha. Imaginary frequency = -143.7 cm-1
C    -0.80484   3.53670  -1.92157
C    -0.25045   3.69182  -0.53800
O     0.74718   4.34533  -0.26546
C    -0.95050   2.98421   0.56014
C    -0.61878   3.30191   1.90526
N    -0.30056   3.60640   2.98291
O    -2.02977   2.31258   0.22539
C    -2.71051   1.40771   0.89308
C    -2.76527   1.36704   2.31278
N    -2.86195   1.28915   3.47034
C    -3.69185   0.61721   0.11289
C    -3.77388   0.88238  -1.35959
O    -4.36381  -0.21918   0.70069
C    -0.60556  -0.15193   0.97772
C    -0.73455  -0.88307  -0.37431
O    -0.41902   0.18461  -1.27996
C     0.83719   0.53083  -0.67799
C     1.53422  -0.85226  -0.71396
Br    3.37666  -1.09864  -0.81181
C     0.54807  -1.74012  -0.52375
Br    0.61869  -3.58458  -0.28128
C     0.39765   0.75032   0.78409
H    -1.83998   3.91179  -1.95749
H    -0.17547   4.09628  -2.62420
H    -0.83659   2.47302  -2.20078
H    -4.53062   0.22237  -1.80076
H    -4.03654   1.93671  -1.54050
H    -2.79448   0.70790  -1.82981
H    -1.01009  -0.51950   1.91828
H    -1.68397  -1.37302  -0.61166
H     1.34487   1.34890  -1.19789
H     0.98793   1.27393   1.53304
