39
Generated by autodE on: 2022-10-06. E = -913.928261 Ha
C     2.76864  -2.70721  -1.33838
N     2.07465  -1.47921  -0.99243
C     1.23849  -1.38076   0.03501
O     0.95675  -2.27147   0.83928
C     0.56517   0.02026   0.19534
C     1.56077   1.08094   0.70257
O     1.50143   1.53582   1.82218
O     2.42393   1.40384  -0.23227
C     3.41400   2.40189   0.10043
N    -0.52153  -0.13768   1.19643
C    -1.83037   0.31517   0.53180
N    -1.98483   1.69188   0.92294
N    -2.86900  -0.53620   1.03396
C    -4.19444  -0.37318   0.43225
C    -1.44927   0.08232  -0.98031
C    -1.55808  -1.37347  -1.42514
C    -2.14646   1.01662  -1.95125
O    -0.04596   0.49270  -0.96778
H     2.81284  -3.35923  -0.45794
H     3.78946  -2.47132  -1.66741
H     2.24849  -3.24044  -2.15005
H     2.18915  -0.66770  -1.59424
H     4.01748   2.05655   0.95072
H     4.03331   2.51388  -0.79534
H     2.91592   3.34850   0.35031
H    -0.32321   0.44463   2.02695
H    -0.54247  -1.13700   1.47820
H    -1.31548   2.29301   0.43683
H    -2.91635   2.01537   0.66077
H    -2.95281  -0.34126   2.03331
H    -4.21907  -0.77203  -0.58988
H    -4.90966  -0.95541   1.02853
H    -4.55694   0.67101   0.40438
H    -1.14656  -2.08076  -0.69447
H    -2.60786  -1.64420  -1.59527
H    -1.01673  -1.49107  -2.37420
H    -3.22441   0.81106  -1.97597
H    -1.99011   2.06837  -1.67965
H    -1.74145   0.85165  -2.95999
