26
Generated by autodE on: 2022-10-06. E = -668.622182 Ha
C    -0.50899   3.56467  -0.94209
N     0.00146   2.37857  -0.28951
C    -0.58629   1.16711  -0.48702
O    -1.68753   1.06255  -1.07329
C     0.12527   0.00710   0.01574
O    -0.46506  -1.24320  -0.24761
C    -1.64990  -1.56309   0.11578
C    -2.15101  -2.84203  -0.42255
C    -2.44092  -0.74657   1.04743
C     1.50585  -0.05037   0.35335
O     2.24251   0.93438   0.51397
O     1.97189  -1.31610   0.53175
C     3.35182  -1.43876   0.87684
H    -1.58031   3.69596  -0.72994
H     0.02970   4.44189  -0.56025
H    -0.38833   3.53461  -2.04033
H     0.96524   2.35452   0.04106
H    -3.05044  -2.63431  -1.02919
H    -1.39359  -3.34319  -1.03711
H    -2.47904  -3.48737   0.40852
H    -3.16538  -1.37613   1.57973
H    -2.98026   0.02918   0.47799
H    -1.76593  -0.21571   1.73963
H     3.57114  -0.92539   1.82542
H     3.54322  -2.51385   0.98411
H     3.99838  -1.02334   0.08873
