13
Generated by autodE on: 2022-10-06. E = -245.298498 Ha
C     1.61323   1.14064  -0.12730
N     0.63227   0.21870  -0.67332
C    -0.39268  -0.28028   0.02213
N    -0.57189   0.05824   1.30053
N    -1.24309  -1.12889  -0.56361
H     2.15042   0.69808   0.72654
H     2.34241   1.37026  -0.91214
H     1.14540   2.08387   0.19749
H     0.71584  -0.06130  -1.64526
H    -1.35504  -0.31994   1.82245
H     0.03975   0.72039   1.76253
H    -2.03091  -1.50613  -0.04910
H    -1.11674  -1.39834  -1.53308
