39
Generated by autodE on: 2022-10-06. E = -913.862160 Ha. Imaginary frequency = -543.5 cm-1
C     2.25370  -3.03140  -1.50407
N     1.74774  -1.67687  -1.37404
C     1.40593  -1.17214  -0.18034
O     1.59799  -1.74365   0.89456
C     0.79327   0.21549  -0.25311
C     1.60029   1.40126   0.14709
O     1.20409   2.54437   0.03273
O     2.76724   1.04463   0.67368
C     3.61169   2.10338   1.15591
N    -0.58653   0.03877   1.44403
C    -1.85681   0.31243   0.95481
N    -2.16662   1.67396   0.95679
N    -2.86000  -0.57352   1.34469
C    -4.18211  -0.55147   0.74011
C    -1.41515  -0.14280  -1.05452
C    -1.40476  -1.64191  -1.13279
C    -2.34786   0.58622  -1.97160
O    -0.20114   0.52446  -1.03480
H     1.47680  -3.76922  -1.24381
H     3.11402  -3.18658  -0.83754
H     2.56896  -3.19378  -2.54144
H     1.49516  -1.16258  -2.21323
H     4.49651   1.61308   1.57620
H     3.89700   2.76672   0.32711
H     3.08805   2.68252   1.92968
H    -0.18811   0.75059   2.05562
H    -0.39557  -0.90915   1.76836
H    -1.43840   2.22617   0.50307
H    -3.06173   1.88129   0.51982
H    -2.50646  -1.51593   1.49606
H    -4.22032  -0.98391  -0.27348
H    -4.86235  -1.13091   1.37959
H    -4.57323   0.47397   0.69532
H    -0.89178  -2.13063  -0.29392
H    -2.44168  -2.00053  -1.14732
H    -0.92514  -1.97106  -2.07015
H    -3.37052   0.20661  -1.86087
H    -2.33874   1.66608  -1.76596
H    -2.04611   0.43206  -3.02282
