24
Generated by autodE on: 2022-05-29. E = -688.223179 Ha
C     3.26530  -2.01382   0.48240
O     1.89542  -1.68334   0.20938
C     1.63565  -0.41373  -0.12995
O     2.49152   0.44389  -0.22856
C     0.19128  -0.24524  -0.37276
C    -0.65648   0.78934  -0.18091
C    -0.54415   2.14137   0.40967
C     0.78800   2.81342   0.54694
O    -1.58248   2.67768   0.78721
C    -2.05750   0.19015  -0.47355
C    -2.37096  -0.79009   0.67750
C    -1.53055  -1.81185   0.49345
C    -0.72632  -1.43423  -0.77025
O    -1.71735  -0.72655  -1.52424
H     3.27341  -3.07990   0.73573
H     3.88706  -1.82643  -0.40489
H     3.64211  -1.41753   1.32587
H     1.31162   2.83411  -0.41977
H     0.64328   3.83143   0.93107
H     1.42660   2.23945   1.23625
H    -2.83386   0.90279  -0.76555
H    -3.08903  -0.60506   1.47520
H    -1.36119  -2.70298   1.09607
H    -0.25552  -2.24104  -1.33940
