11
Generated by autodE on: 2022-05-29. E = -376.804759 Ha
C    -2.37426   0.41039   0.11491
O    -0.94251   0.44333   0.15754
C    -0.30205  -0.66388  -0.26440
O    -0.87308  -1.66439  -0.66666
C     1.14190  -0.53962  -0.19028
N     1.69179   0.56215   0.25089
N     2.15787   1.51947   0.63372
H    -2.72943   0.26427  -0.91588
H    -2.70940   1.38327   0.49336
H    -2.76429  -0.39670   0.75246
H     1.81038  -1.34484  -0.49274
