35
Generated by autodE on: 2022-05-29. E = -1065.015779 Ha. Imaginary frequency = -383.3 cm-1
C     3.57803  -1.65700   0.45770
O     2.35783  -1.23136   1.08660
C     2.15369   0.07838   1.18179
O     2.94110   0.93794   0.84108
C     0.78446   0.40524   1.65499
N     0.07872  -0.60403   2.20962
N    -0.77808  -1.34604   2.02381
C    -1.31173  -0.58555  -0.05538
C    -1.15626  -1.93646  -0.61300
C    -2.43284  -2.69082  -0.88810
O    -0.05559  -2.45023  -0.80216
C    -2.67509   0.04501   0.33580
C    -3.17127   0.83973  -0.88442
C    -2.35341   1.89543  -0.96424
C    -1.37809   1.72848   0.21080
O    -2.21805   1.10654   1.19040
C    -0.44273   0.52754  -0.14127
C     0.63260   0.74364  -1.14473
O     1.33025  -0.10022  -1.67078
O     0.76109   2.05430  -1.39992
C     1.80435   2.43478  -2.30837
H     4.44802  -1.29518   1.02339
H     3.61731  -1.27878  -0.57299
H     3.54802  -2.75212   0.46150
H     0.64931   1.37942   2.13146
H    -2.97471  -2.86004   0.05714
H    -3.10057  -2.10647  -1.54141
H    -2.20218  -3.65760  -1.35388
H    -3.38853  -0.61131   0.84289
H    -3.97412   0.52903  -1.55207
H    -2.30047   2.68261  -1.71496
H    -0.88205   2.62317   0.59645
H     1.74691   3.52602  -2.39202
H     1.64979   1.96810  -3.29152
H     2.78208   2.13315  -1.90631
