29
Generated by autodE on: 2022-07-27. E = -870.463618 Ha
C    -2.15333  -2.72981   2.78722
N    -1.39512  -2.38417   1.60261
C    -0.94262  -1.13706   1.40524
O    -1.19120  -0.17694   2.14868
C    -0.04725  -0.93168   0.23924
O     0.16124   0.26269  -0.23087
C    -0.37795   1.45910  -0.14844
C    -1.63058   1.74253   0.43876
N    -2.68825   2.06954   0.80892
C     0.28571   2.55092  -0.90105
O    -0.09799   3.71679  -0.73558
N     1.29137   2.21004  -1.72766
C     1.99059   3.20982  -2.51123
C     0.83782  -1.99330  -0.31090
O     0.52021  -3.18903  -0.18809
N     1.95525  -1.60322  -0.94504
C     2.86123  -2.57126  -1.53317
H    -2.96747  -2.00729   2.94286
H    -2.58295  -3.73031   2.65590
H    -1.52249  -2.73024   3.69244
H    -0.99797  -3.10684   0.99807
H     1.46308   1.23002  -1.92030
H     2.85588   2.73909  -2.99327
H     2.34309   4.02805  -1.86651
H     1.34336   3.64563  -3.29060
H     2.22299  -0.62494  -0.92962
H     3.31873  -3.21397  -0.76349
H     2.32916  -3.21983  -2.24509
H     3.65488  -2.03284  -2.06420
