26
Generated by autodE on: 2022-06-26. E = -689.456698 Ha
C     1.93348  -2.79035   0.66470
O     1.91885  -1.51814   0.00260
C     0.80026  -0.76248   0.00898
C     0.91913   0.58855   0.16256
O     2.13661   1.10656   0.41906
C     2.52283   2.37921  -0.11802
C    -0.29562   1.44158   0.21451
O    -0.20360   2.62240   0.53638
C    -1.62367   0.83217  -0.08865
C    -2.81386   1.74016  -0.10170
C    -1.73419  -0.50390  -0.28903
C    -3.05292  -1.16392  -0.54585
C    -0.51563  -1.36546  -0.31409
O    -0.58824  -2.55056  -0.62712
H     2.96818  -2.94653   1.00071
H     1.26684  -2.79091   1.54015
H     1.64344  -3.59835  -0.01996
H     3.61427   2.33622  -0.23877
H     2.25955   3.19568   0.56715
H     2.05743   2.55563  -1.09904
H    -2.51915   2.78427   0.05571
H    -3.53008   1.45469   0.68705
H    -3.35338   1.66105  -1.05949
H    -3.52121  -0.75750  -1.45797
H    -2.93786  -2.24760  -0.66506
H    -3.75426  -0.96752   0.28143
