55
Generated by autodE on: 2022-06-26. E = -1559.927488 Ha. Imaginary frequency = -302.7 cm-1
C     3.05769   3.36529  -1.99062
N     2.43974   2.47334  -1.02949
C     1.63545   2.95047  -0.06188
O     1.46304   4.15540   0.15279
C     0.89736   1.92203   0.74350
C     0.06936   2.46462   1.76618
N    -0.60399   3.09066   2.48342
O     1.51544   0.73518   0.79756
C     1.05577  -0.50948   0.90192
C     0.09007  -0.82687   1.99410
O    -0.37991   0.09050   2.67879
N    -0.23487  -2.11598   2.16194
C    -1.17790  -2.52733   3.18001
C     2.00995  -1.53601   0.38859
O     1.68161  -2.73654   0.35728
N     3.19869  -1.09925  -0.04986
C     4.16363  -1.99672  -0.65355
C    -0.20454  -0.12897  -1.17061
O     0.81240  -0.14262  -2.04288
C     1.23836  -1.27994  -2.81167
C    -1.05900  -1.30573  -0.88176
O    -0.81601  -2.40457  -1.37060
C    -2.22673  -1.13373   0.03498
C    -2.95080  -2.40370   0.35938
C    -2.58792   0.10007   0.47187
C    -3.67997   0.38425   1.45514
C    -1.95174   1.32197  -0.09990
O    -2.44877   2.42197   0.11192
C    -0.74263   1.17626  -0.96033
O    -0.41869   2.06578  -1.91042
C    -0.94550   3.39872  -1.97168
H     3.82335   2.81323  -2.54994
H     3.53118   4.21072  -1.47365
H     2.31700   3.76794  -2.70303
H     2.33590   1.49588  -1.28928
H     0.23748  -2.79193   1.55685
H    -2.06106  -1.87309   3.17274
H    -1.49144  -3.55864   2.98029
H    -0.73063  -2.48157   4.18740
H     3.40316  -0.10724  -0.00513
H     5.11475  -1.46412  -0.77138
H     4.32074  -2.87995  -0.01725
H     3.82326  -2.34311  -1.64302
H     1.49435  -2.13472  -2.17904
H     0.45465  -1.56937  -3.52473
H     2.12429  -0.92902  -3.35492
H    -3.57774  -2.31119   1.25221
H    -2.24782  -3.23504   0.49530
H    -3.60526  -2.67594  -0.48707
H    -3.32133   1.10735   2.20314
H    -4.54622   0.84793   0.95492
H    -4.02098  -0.51982   1.97078
H    -0.78041   3.94007  -1.03472
H    -0.39053   3.88042  -2.78659
H    -2.01763   3.38208  -2.21130
