32
Generated by autodE on: 2022-07-28. E = -744.227480 Ha
C    -0.60959   4.59311   0.90459
N    -1.27648   3.41139   0.39945
C    -0.60731   2.23046   0.26006
O     0.53254   2.08345   0.75034
C    -1.28327   1.17107  -0.47302
C    -2.42533   1.40953  -1.24568
N    -3.38812   1.63701  -1.87921
N    -0.63508  -0.08212  -0.59222
C    -0.42263  -0.58178  -1.96115
C    -0.17582  -0.71517   0.47024
C    -0.65856  -0.37683   1.83336
C     0.86405  -1.75380   0.32696
C     2.06039  -1.45167  -0.34977
C     3.06811  -2.41004  -0.45420
C     2.89069  -3.67966   0.10555
C     1.70655  -3.98334   0.78569
C     0.70242  -3.02271   0.91039
H    -1.35328   5.38768   1.04792
H    -0.13158   4.38588   1.87318
H     0.17143   4.96748   0.21856
H    -2.15042   3.53681  -0.09974
H    -1.35647  -0.43401  -2.51931
H     0.37633  -0.01022  -2.45153
H    -0.17869  -1.64814  -1.94803
H    -0.68562  -1.28518   2.45132
H     0.03836   0.33137   2.31024
H    -1.64790   0.10156   1.79692
H     2.20338  -0.45480  -0.77023
H     3.99756  -2.16322  -0.97210
H     3.67846  -4.43128   0.01698
H     1.56476  -4.97344   1.22446
H    -0.22066  -3.26440   1.44094
