58
Generated by autodE on: 2022-06-25. E = -1433.666002 Ha. Imaginary frequency = -350.0 cm-1
C    -0.08461   5.17082   0.35338
N    -0.49909   3.85313  -0.08757
C     0.33530   3.04639  -0.74031
O     1.48143   3.34162  -1.07683
C    -0.24586   1.67495  -1.20709
C    -0.95844   1.97393  -2.42559
N    -1.55821   2.28966  -3.37082
N     0.77589   0.67021  -1.36354
C     0.89108   0.07534  -2.71302
C     1.58594   0.32685  -0.36441
C     1.79648   1.16196   0.85368
C     2.44504  -0.87162  -0.46364
C     3.74802  -0.83032   0.07590
C     4.55929  -1.96287   0.05928
C     4.07749  -3.16715  -0.46373
C     2.78088  -3.22740  -0.98210
C     1.97530  -2.09094  -0.99292
C    -1.10682   0.53652   1.22698
O    -0.92002   1.56820   2.12046
C    -1.34126   1.36165   3.46731
C    -0.59886  -0.75978   1.47828
O     0.05577  -1.06019   2.51503
C    -0.90832  -1.84131   0.47725
C    -0.46863  -3.21351   0.87347
C    -1.57489  -1.59275  -0.68487
C    -1.91472  -2.65189  -1.69673
C    -2.10835  -0.24462  -0.92269
O    -2.94647  -0.01516  -1.78875
C    -1.63113   0.91093  -0.04649
O    -2.49790   2.00260  -0.09212
C    -3.72147   1.85163   0.62958
H    -0.95273   5.69103   0.77587
H     0.70175   5.10681   1.12327
H     0.31001   5.75812  -0.48931
H    -1.40410   3.46308   0.18383
H     1.81895  -0.49173  -2.79345
H     0.92549   0.89836  -3.43650
H     0.03484  -0.57352  -2.93619
H     1.94031   0.50598   1.72111
H     0.99228   1.85493   1.09500
H     2.71708   1.75096   0.70299
H     4.13963   0.09753   0.49188
H     5.57229  -1.90539   0.46286
H     4.71043  -4.05737  -0.46372
H     2.38847  -4.16587  -1.37876
H     0.96554  -2.16461  -1.38678
H    -0.64430   0.71095   4.01304
H    -1.37364   2.35297   3.94094
H    -2.34879   0.91399   3.49965
H    -0.42130  -3.90325   0.02280
H     0.50727  -3.17525   1.37453
H    -1.18217  -3.62859   1.60823
H    -2.34006  -2.19840  -2.60082
H    -1.02200  -3.22953  -1.98289
H    -2.65175  -3.37144  -1.30273
H    -4.28301   0.97386   0.27545
H    -4.30680   2.75928   0.43197
H    -3.54025   1.76139   1.71083
