50
Generated by autodE on: 2022-06-08. E = -4565.023189 Ha
C    -1.90285  -1.06706  -2.68072
N    -0.52249  -1.15180  -2.19610
N    -0.45597  -2.12772  -1.14310
C     0.38661  -3.14835  -1.32275
N     1.05088  -4.07769  -1.56043
C    -0.65594  -1.42734   0.10204
C    -0.47723  -0.10238  -0.14810
N    -0.16034   0.06158  -1.53318
C     1.15418   0.54044  -1.87424
C     2.26966   0.20880  -1.09852
C     3.52400   0.72070  -1.44025
C     3.66378   1.54570  -2.56030
C     2.54717   1.85149  -3.34799
C     1.29089   1.35153  -3.00516
C    -0.60247   1.14540   0.71083
Br    0.87880   1.01960   2.11928
C    -0.36980   2.40031  -0.14780
C    -1.37462   2.71348  -1.08240
C    -1.23584   3.79803  -1.94627
C    -0.09141   4.60206  -1.88976
C     0.90529   4.30496  -0.96117
C     0.76821   3.20967  -0.10065
C    -1.96919   1.29658   1.47822
C    -3.03259   0.20445   1.31819
C    -2.93231  -0.93290   2.33687
C    -1.54524  -1.54165   2.53133
C    -0.94302  -2.23589   1.32141
Cl    0.67661  -2.96117   1.85951
Cl   -2.01748  -3.64366   0.86276
H    -2.61955  -0.82227  -1.87829
H    -2.16809  -2.03308  -3.13024
H    -1.93605  -0.28802  -3.45321
H     2.15383  -0.43780  -0.22746
H     4.39478   0.47187  -0.82932
H     4.64427   1.94982  -2.82240
H     2.65406   2.49565  -4.22363
H     0.40502   1.60338  -3.58991
H    -2.26548   2.08707  -1.15386
H    -2.02513   4.01368  -2.67008
H     0.01894   5.45192  -2.56718
H     1.80683   4.91901  -0.90436
H     1.57044   2.98394   0.59906
H    -1.75685   1.44711   2.54482
H    -2.39724   2.24333   1.13109
H    -4.01389   0.68537   1.45243
H    -3.03395  -0.18367   0.28897
H    -3.23223  -0.54486   3.32408
H    -3.65170  -1.72579   2.08126
H    -0.82701  -0.77839   2.85849
H    -1.58239  -2.29297   3.33235
