30
Generated by autodE on: 2022-06-08. E = -4036.149791 Ha
Cl   -1.51762   3.91094  -0.21651
C    -0.66172   2.56305  -1.08977
Cl    0.76031   3.29136  -1.98495
C    -0.17145   1.55649  -0.17742
C     0.08227   0.42569   0.17792
C     0.16167  -1.01886   0.15889
Br   -1.37628  -1.66067   1.37970
C     1.43421  -1.61572   0.71077
C     2.35726  -0.81184   1.39375
C     3.54333  -1.35862   1.89157
C     3.81859  -2.71616   1.71259
C     2.89924  -3.52536   1.03438
C     1.71541  -2.98078   0.53731
C    -0.17734  -1.45063  -1.29012
C    -1.36168  -0.74502  -1.97902
C    -1.10259   0.59234  -2.72918
C    -1.62208   1.89539  -2.08929
H     2.14828   0.25053   1.53631
H     4.25323  -0.71822   2.42004
H     4.74498  -3.14521   2.10132
H     3.10506  -4.58891   0.89349
H     1.00196  -3.62808   0.02527
H    -0.35285  -2.53516  -1.28387
H     0.74428  -1.28389  -1.87332
H    -1.73456  -1.46210  -2.72547
H    -2.18559  -0.62172  -1.25724
H    -1.61165   0.52276  -3.70189
H    -0.03157   0.69952  -2.96669
H    -1.85025   2.64287  -2.86321
H    -2.55551   1.69455  -1.54067
