50
Generated by autodE on: 2022-06-08. E = -4564.945623 Ha. Imaginary frequency = -355.5 cm-1
C    -0.47300  -1.36583  -2.95240
N     0.23780  -1.75619  -1.72412
N    -0.39757  -2.55188  -0.84845
C    -1.17153  -3.50778  -1.34153
N    -1.79716  -4.42051  -1.72197
C    -1.03335  -1.26351   0.46277
C    -0.18728  -0.32995   0.49160
N     1.13895  -1.05821  -1.10057
C     1.84524  -0.02251  -1.76070
C     3.23112  -0.02138  -1.52414
C     4.04149   0.97790  -2.05909
C     3.47279   2.01088  -2.81113
C     2.09292   2.02602  -3.03667
C     1.28053   1.01473  -2.52472
C     0.27870   0.88048   1.16897
Br    2.23195   0.47496   1.71364
C     0.21554   2.12959   0.30060
C    -0.83798   2.25810  -0.61723
C    -0.99369   3.42474  -1.36873
C    -0.09067   4.48020  -1.22199
C     0.95847   4.36289  -0.30514
C     1.10430   3.20130   0.45657
C    -0.41386   1.10263   2.53607
C    -1.87703   1.56205   2.50659
C    -2.91826   0.65997   1.82915
C    -2.82333  -0.83624   2.17721
C    -2.31071  -1.70776   1.02812
Cl   -2.16684  -3.42214   1.64635
Cl   -3.57061  -1.68980  -0.31640
H     0.24622  -0.99948  -3.69035
H    -0.97199  -2.25583  -3.35136
H    -1.22130  -0.59374  -2.71789
H     3.65360  -0.81646  -0.91002
H     5.11765   0.95965  -1.87350
H     4.10246   2.80715  -3.21455
H     1.63742   2.83764  -3.60761
H     0.20971   1.06644  -2.68865
H    -1.53455   1.43184  -0.76227
H    -1.81673   3.49856  -2.08318
H    -0.20111   5.38798  -1.81955
H     1.67355   5.17956  -0.18192
H     1.93150   3.11955   1.16180
H    -0.31556   0.17282   3.11441
H     0.16388   1.87146   3.06974
H    -2.16163   1.69031   3.56461
H    -1.93825   2.56393   2.05276
H    -3.91425   1.02567   2.12073
H    -2.87550   0.78216   0.73844
H    -2.14666  -1.00559   3.02789
H    -3.80175  -1.24281   2.46706
