40
Generated by autodE on: 2022-05-31. E = -1399.760249 Ha
C    -2.74303   3.76971   0.22927
N    -1.82720   2.67628   0.49742
C    -1.73224   1.61188  -0.30510
O    -2.45345   1.40166  -1.28873
C    -0.68573   0.60501   0.04406
C     0.65125   0.69750   0.02325
C     1.51554   1.89074  -0.23785
F     2.59743   1.54471  -0.95848
F     1.95599   2.45292   0.89984
F     0.86111   2.84213  -0.92250
C     1.15599  -0.73748   0.12352
C     2.61928  -0.97339   0.47030
O     3.06888  -0.43752   1.48323
N     3.30922  -1.75518  -0.35982
C     4.71065  -2.05321  -0.12786
O     0.80381  -1.35248  -1.21076
C    -0.54172  -1.46219  -1.19228
O    -1.20287  -1.90044  -2.09216
C    -0.98028  -0.90151   0.20866
C    -2.35234  -1.31322   0.73972
O    -2.47311  -1.81808   1.85663
N    -3.37983  -1.08513  -0.08748
C    -4.74657  -1.35703   0.31885
N     0.18772  -1.31299   1.02219
C     0.35079  -2.74948   1.27473
H    -2.95837   4.29774   1.16654
H    -2.31424   4.48420  -0.49273
H    -3.67837   3.37336  -0.18682
H    -1.13582   2.78204   1.23528
H     2.83269  -2.14823  -1.16578
H     5.07931  -2.67844  -0.94908
H     5.30395  -1.12703  -0.08599
H     4.84765  -2.59145   0.82281
H    -3.21408  -0.53999  -0.93190
H    -5.05417  -0.71083   1.15727
H    -5.41108  -1.17390  -0.53394
H    -4.85379  -2.40405   0.63806
H    -0.47385  -3.08601   1.90916
H     0.37558  -3.36487   0.35855
H     1.29158  -2.89608   1.82180
