14
Generated by autodE on: 2022-05-31. E = -622.674882 Ha
C    -3.09883  -0.96232   0.24897
N    -3.02133   0.37348  -0.31333
C    -1.91935   1.09786  -0.56458
O    -1.92771   2.23289  -1.04948
C    -0.63541   0.47327  -0.23117
C     0.46878   0.04183   0.00874
C     1.79286  -0.50935   0.30896
F     1.70185  -1.74601   0.82270
F     2.44679   0.25135   1.19933
F     2.54955  -0.58552  -0.79611
H    -3.68802  -0.95652   1.17843
H    -2.09303  -1.33459   0.47789
H    -3.57362  -1.65547  -0.46207
H    -3.89427   0.83821  -0.55847
