40
Generated by autodE on: 2022-05-31. E = -1399.700126 Ha. Imaginary frequency = -333.3 cm-1
C    -1.91599   2.21344   1.94436
N    -2.41179   2.29877   0.57949
C    -1.78754   1.81179  -0.51174
O    -2.27270   1.83216  -1.65162
C    -0.47887   1.22511  -0.27806
C     0.74076   1.00930  -0.10823
C     1.99458   1.71788   0.22373
F     1.90706   3.03302  -0.03914
F     2.28224   1.59506   1.53359
F     3.05489   1.25051  -0.46185
C     0.98954  -1.06665  -0.17199
C     2.41661  -1.45922   0.10541
O     2.89856  -1.35513   1.23460
N     3.09316  -1.88781  -0.96628
C     4.51428  -2.16925  -0.88487
O     0.55193  -1.24131  -1.46142
C    -0.83177  -1.17805  -1.45362
O    -1.48883  -1.17921  -2.47184
C    -1.19405  -1.12656  -0.04580
C    -2.58011  -1.11972   0.49207
O    -2.82647  -1.17107   1.70313
N    -3.53355  -1.02157  -0.45021
C    -4.93106  -0.88383  -0.09172
N    -0.05704  -1.34611   0.66823
C     0.04872  -1.28125   2.12611
H    -0.85047   2.47719   1.98682
H    -2.47079   2.92981   2.56333
H    -2.04999   1.20492   2.36523
H    -3.36953   2.60649   0.42580
H     2.62704  -1.91906  -1.86768
H     4.85960  -2.52461  -1.86252
H     4.71871  -2.94210  -0.12904
H     5.07721  -1.26248  -0.61064
H    -3.24771  -0.93657  -1.42480
H    -5.11240   0.05370   0.45891
H    -5.53140  -0.87896  -1.00914
H    -5.25668  -1.72016   0.54496
H     1.03359  -1.65179   2.41676
H    -0.06447  -0.23496   2.44746
H    -0.75030  -1.88489   2.56080
