50
Generated by autodE on: 2022-06-11. E = -1005.626401 Ha
C    -1.38523  -0.16160   0.32533
C    -0.47833   0.25559  -0.36341
C     0.66680   1.08924  -0.75510
C     1.96910   0.33527  -0.42217
C     3.04834   0.93838   0.23589
C     4.22655   0.22119   0.47813
C     4.34373  -1.10717   0.06503
C     3.27108  -1.71752  -0.59557
C     2.09775  -1.00120  -0.83422
C     0.67718   1.46005  -2.24489
C    -0.36803   1.09334  -3.10105
C    -0.35086   1.46480  -4.45018
C     0.71350   2.21153  -4.96051
C     1.76315   2.58158  -4.11162
C     1.74564   2.20624  -2.76707
C     0.46107   2.39079   0.09179
C     0.22499   2.20462   1.60665
C    -1.23589   2.05715   2.12240
C    -1.72042   0.66053   2.56319
C    -2.32571  -0.24050   1.44164
C    -2.61442  -1.63821   1.95819
C    -1.66770  -2.66706   1.85244
C    -1.92831  -3.93219   2.38716
C    -3.14017  -4.18478   3.03800
C    -4.08958  -3.16349   3.14947
C    -3.82668  -1.90008   2.61286
H     2.98512   1.97464   0.56764
H     5.05562   0.70962   0.99599
H     5.26307  -1.66548   0.25682
H     3.34877  -2.75640  -0.92542
H     1.26448  -1.48349  -1.35107
H    -1.20354   0.51018  -2.70849
H    -1.17497   1.16642  -5.10297
H     0.72881   2.50146  -6.01380
H     2.60319   3.16266  -4.50003
H     2.57675   2.49033  -2.11822
H     1.33355   3.03997  -0.07172
H    -0.39695   2.92260  -0.34811
H     0.83277   1.36366   1.97885
H     0.64645   3.10073   2.08878
H    -1.93990   2.47568   1.38220
H    -1.32740   2.70370   3.00956
H    -0.88359   0.11060   3.02560
H    -2.49420   0.76724   3.34037
H    -3.28137   0.21278   1.12764
H    -0.72026  -2.47481   1.34264
H    -1.18179  -4.72481   2.29286
H    -3.34542  -5.17416   3.45382
H    -5.04103  -3.35255   3.65281
H    -4.57212  -1.10465   2.69839
