18
Generated by autodE on: 2022-06-11. E = -493.590849 Ha
C    -2.23453   1.46077  -0.07717
N    -2.68379   0.10052   0.16037
C    -1.89320  -0.91398   0.54645
O    -2.24071  -2.08930   0.67707
C    -0.51080  -0.54410   0.90335
N     0.58867  -0.62342   0.43966
C     1.80769  -0.60813  -0.00466
C     2.37306   0.58390  -0.62588
C     1.50180   1.81292  -0.71528
O     3.52759   0.56263  -1.05801
H    -3.07479   2.15018   0.07549
H    -1.44197   1.72781   0.63698
H    -1.84585   1.59854  -1.09893
H    -3.62955  -0.16223  -0.10928
H     2.41004  -1.51515   0.09139
H     1.15107   2.11497   0.28491
H     2.07315   2.63207  -1.17000
H     0.60468   1.60732  -1.32148
