68
Generated by autodE on: 2022-06-11. E = -1499.213679 Ha. Imaginary frequency = -238.1 cm-1
C    -1.20487   1.35610  23.15610
N    -0.88801   0.65670  21.92356
C    -0.03949  -0.37765  21.91803
O     0.58957  -0.78678  22.89731
C     0.14730  -1.07618  20.62159
N     0.94402  -0.96781  19.72239
C     1.70854  -1.50958  18.81507
C     2.80130  -2.37685  19.27528
C     3.81413  -2.77464  18.23554
O     2.92467  -2.70412  20.45738
C    -0.09993  -3.65730  19.21549
C    -0.74202  -3.14635  20.13962
C    -1.63981  -3.39924  21.29371
C    -2.57209  -2.25277  21.64690
C    -2.94263  -1.96500  22.96701
C    -3.81982  -0.91162  23.24964
C    -4.33806  -0.12681  22.21746
C    -3.98085  -0.41037  20.89410
C    -3.10918  -1.46423  20.61536
C    -0.80954  -3.98303  22.46424
C     0.40741  -4.82321  22.03778
C     0.19126  -5.92891  20.96872
C     0.98782  -5.76993  19.65555
C     0.28744  -4.92267  18.54166
C    -0.97499  -5.68182  18.04807
C    -0.82634  -6.97265  17.51162
C    -1.92996  -7.69419  17.05425
C    -3.21204  -7.13584  17.11360
C    -3.37040  -5.84990  17.63237
C    -2.26167  -5.13086  18.09567
C     1.17080  -4.71120  17.30403
C     0.82462  -3.69733  16.39675
C     1.55518  -3.49857  15.22547
C     2.65250  -4.31916  14.93507
C     3.00180  -5.33438  15.82701
C     2.26643  -5.52907  17.00271
H    -0.33790   1.93025  23.51841
H    -2.03370   2.04664  22.96381
H    -1.50574   0.64733  23.94177
H    -1.47786   0.80021  21.10837
H     1.67325  -1.13447  17.79180
H     4.24788  -3.75143  18.48523
H     3.39719  -2.78583  17.22151
H     4.62371  -2.02342  18.26159
H    -2.29395  -4.21572  20.93450
H    -2.54286  -2.55746  23.79062
H    -4.08945  -0.69887  24.28692
H    -5.01387   0.70199  22.44076
H    -4.37902   0.19559  20.07649
H    -2.82299  -1.67278  19.58168
H    -0.44058  -3.15750  23.09116
H    -1.48837  -4.58150  23.09350
H     0.80975  -5.28572  22.95396
H     1.19087  -4.13582  21.68919
H     0.48840  -6.89481  21.40565
H    -0.87984  -6.04031  20.73259
H     1.96642  -5.31336  19.86917
H     1.19161  -6.76770  19.24383
H     0.16594  -7.42153  17.44018
H    -1.78665  -8.69737  16.64507
H    -4.07701  -7.69894  16.75514
H    -4.36341  -5.39613  17.68201
H    -2.40384  -4.12788  18.49611
H    -0.02991  -3.05477  16.61989
H     1.26989  -2.69973  14.53650
H     3.22924  -4.16503  14.02004
H     3.85759  -5.97989  15.61467
H     2.56372  -6.32709  17.68249
