42
Generated by autodE on: 2022-07-27. E = -1012.554592 Ha
C     2.33448   2.20932   3.72665
N     1.78328   1.49599   2.58939
C     0.50498   1.75470   2.17674
O    -0.19952   2.57032   2.79610
C    -0.01467   1.03711   0.99897
N     0.65128  -0.05671   0.56475
C     0.41637  -1.00622  -0.36162
C    -0.92727  -1.20158  -0.97155
O    -1.06481  -1.39457  -2.18868
N    -1.97709  -1.21600  -0.12468
C    -3.33959  -1.17983  -0.62062
C     1.52918  -1.85725  -0.76952
C     1.29718  -3.14132  -1.31699
C     2.35872  -3.96912  -1.67357
C     3.68294  -3.55121  -1.48989
C     3.93051  -2.28299  -0.95608
C     2.87219  -1.44110  -0.61335
C    -1.16769   1.58456   0.26273
C    -1.07507   1.79353  -1.12855
C    -2.14462   2.33291  -1.84163
C    -3.33209   2.67391  -1.18300
C    -3.43576   2.47155   0.19600
C    -2.36628   1.93151   0.91375
H     1.67993   2.09701   4.60252
H     2.45269   3.28919   3.53013
H     3.31837   1.78603   3.96661
H     2.46311   1.13878   1.92499
H     1.53328  -0.22067   1.05404
H    -1.82112  -0.98808   0.85119
H    -3.59577  -2.11111  -1.14924
H    -4.02293  -1.05692   0.22784
H    -3.48331  -0.34041  -1.31927
H     0.27415  -3.49359  -1.45422
H     2.15090  -4.95737  -2.09100
H     4.51235  -4.20474  -1.76911
H     4.95747  -1.93380  -0.82453
H     3.09853  -0.43566  -0.24990
H    -0.15475   1.53307  -1.65550
H    -2.04971   2.49176  -2.91844
H    -4.17096   3.09293  -1.74346
H    -4.36034   2.72804   0.71890
H    -2.45777   1.76337   1.98594
