42
Generated by autodE on: 2022-06-07. E = -1012.575955 Ha
C     3.71077  -0.20402   3.73783
N     2.87993  -0.41574   2.57120
C     1.78044   0.33422   2.33774
O     1.43229   1.24381   3.12202
C     1.01285   0.06600   1.10983
N     0.01501   0.94326   0.94197
C    -0.99337   1.12539   0.07985
C    -1.73912   2.36462   0.35802
O    -1.36574   3.14547   1.26056
N    -2.84697   2.61159  -0.37519
C    -3.65853   3.79014  -0.15502
C    -1.36244   0.13943  -0.94767
C    -1.48314   0.51105  -2.29998
C    -1.77997  -0.44207  -3.27666
C    -1.95568  -1.78254  -2.92097
C    -1.85247  -2.16176  -1.57754
C    -1.56573  -1.21073  -0.59998
C     1.35131  -0.96811   0.11977
C     1.53860  -0.62512  -1.23394
C     1.79447  -1.60810  -2.18825
C     1.88228  -2.95260  -1.80907
C     1.72276  -3.30404  -0.46544
C     1.45694  -2.32181   0.49112
H     4.45841  -1.00516   3.79123
H     3.10795  -0.22060   4.65880
H     4.23653   0.76517   3.69833
H     3.16422  -1.10432   1.88375
H     0.02633   1.67672   1.67525
H    -3.14996   1.92746  -1.05902
H    -3.04320   4.70256  -0.18135
H    -4.41584   3.85246  -0.94638
H    -4.17211   3.75981   0.82101
H    -1.31022   1.54930  -2.59005
H    -1.85672  -0.13777  -4.32312
H    -2.17367  -2.53015  -3.68707
H    -1.99367  -3.20635  -1.29073
H    -1.48553  -1.51325   0.44503
H     1.46986   0.42068  -1.53654
H     1.92333  -1.32459  -3.23533
H     2.07586  -3.72285  -2.55912
H     1.78790  -4.35126  -0.16103
H     1.29607  -2.60808   1.53236
