20
Generated by autodE on: 2022-06-07. E = -411.433908 Ha
F     0.59433  -1.69024  -1.79040
C    -0.25260  -1.61164  -0.66742
C     0.51177  -1.15124   0.48904
C     0.90122  -0.33703   1.30135
C     1.01827   0.94239   1.98910
C     0.45570   2.02662   1.03630
C    -0.90040   1.70020   0.37177
C    -0.90152   0.89838  -0.96330
C    -1.35161  -0.57766  -0.94289
H    -0.68734  -2.61465  -0.53526
H     0.42928   0.90943   2.92188
H     2.05529   1.17645   2.27828
H     1.20216   2.22725   0.24927
H     0.35785   2.95743   1.61835
H    -1.37902   2.66955   0.16107
H    -1.55922   1.20326   1.10590
H    -1.59063   1.41508  -1.64921
H     0.08962   0.96387  -1.44393
H    -2.14343  -0.72369  -0.18968
H    -1.79028  -0.84673  -1.91800
