62
Generated by autodE on: 2022-06-07. E = -1423.986235 Ha. Imaginary frequency = -225.3 cm-1
C    -3.59909   3.99886   1.61845
N    -2.35610   3.92482   2.36008
C    -1.18652   4.25079   1.80085
O    -1.05980   4.49796   0.59400
C     0.04555   4.27180   2.68829
C     1.08207   3.26300   2.43525
C     0.88796   2.25455   1.46697
C     1.83382   1.24528   1.27973
C     2.99952   1.21153   2.04903
C     3.20329   2.19908   3.02020
C     2.25746   3.20187   3.21866
N     0.39888   5.40226   3.32958
C    -0.36371   6.31054   3.99342
C     0.28287   7.19463   4.98161
O    -0.41084   7.91637   5.72204
N     1.63652   7.16220   5.12272
C     2.28765   7.94452   6.15583
C    -1.68056   6.74079   3.45409
C    -1.74601   7.22684   2.13608
C    -2.95264   7.68307   1.60027
C    -4.11400   7.67265   2.37727
C    -4.05814   7.19908   3.69234
C    -2.85378   6.73819   4.22701
C    -0.95899   4.42536   5.54594
C    -0.82721   3.39619   4.87002
C    -0.70987   1.92695   4.81068
C     0.29355   1.41001   5.86946
C     0.21709   2.11273   7.23894
C     1.00422   3.44912   7.32084
C     0.21823   4.71064   7.70315
C    -1.05375   5.00579   6.89015
F    -2.16394   4.40446   7.54973
H    -3.66705   4.94843   1.06755
H    -3.68104   3.17454   0.89173
H    -4.43671   3.93262   2.32308
H    -2.37248   3.83741   3.37347
H    -0.00591   2.26425   0.84375
H     1.65543   0.47964   0.52104
H     3.73829   0.42081   1.90161
H     4.09983   2.17905   3.64400
H     2.43811   3.91742   4.02472
H     1.34758   5.33567   3.69201
H     2.22401   6.82013   4.37152
H     1.83914   7.73166   7.13698
H     2.20510   9.02960   5.97309
H     3.35050   7.67325   6.18748
H    -0.84212   7.24167   1.52467
H    -2.98214   8.05039   0.57173
H    -5.05901   8.02824   1.96011
H    -4.96158   7.18151   4.30659
H    -2.83141   6.35154   5.24479
H    -1.71061   1.51218   5.02588
H    -0.42846   1.55694   3.81374
H     0.11323   0.32942   5.99256
H     1.31686   1.51067   5.47166
H    -0.83949   2.27566   7.50643
H     0.61446   1.41990   7.99750
H     1.82422   3.34685   8.05018
H     1.49697   3.63473   6.35334
H     0.88651   5.58180   7.61063
H    -0.10344   4.67537   8.75736
H    -1.26229   6.08294   6.89721
