49
Generated by autodE on: 2022-06-26. E = -1219.931168 Ha
C     3.62038  -2.71452  -1.73068
N     3.04304  -1.70232  -0.86562
C     1.92075  -1.92533  -0.16407
O     1.31051  -3.00010  -0.22768
C     1.43107  -0.78840   0.77414
C     2.41560  -0.70448   1.94385
N     0.07433  -1.07662   1.25188
C    -0.88092  -0.76531   0.18954
C    -2.19051  -0.10993   0.69646
C    -2.14642   0.77155   1.90337
O    -3.22261  -0.31979   0.07981
C    -1.32173  -2.02117  -0.58622
O    -1.31387  -2.14940  -1.79138
O    -1.73929  -2.96596   0.25642
C    -2.10565  -4.22976  -0.31584
C    -0.09423   0.21666  -0.75478
C     1.21183   0.52978  -0.00192
C     1.13003   1.75989   0.91237
C     0.36567   2.88355   0.26229
C     0.49258   4.28028   0.69739
N     1.31579   4.51605   1.75205
O    -0.10895   5.22745   0.14876
C    -0.53758   2.61435  -0.72541
N    -0.82995   1.38288  -1.20806
C    -1.68996   1.21066  -2.36789
H     2.88031  -3.06871  -2.46427
H     3.97073  -3.58623  -1.15429
H     4.47253  -2.28011  -2.26725
H     3.53013  -0.82013  -0.75157
H     3.40602  -0.36754   1.60523
H     2.52998  -1.69593   2.40870
H     2.04847  -0.00884   2.70945
H    -0.01004  -2.04794   1.54587
H    -3.16883   1.04690   2.19169
H    -1.62250   0.27302   2.72918
H    -1.57841   1.68564   1.66467
H    -1.23944  -4.67590  -0.82554
H    -2.93104  -4.10377  -1.03076
H    -2.42071  -4.86202   0.52204
H     0.15940  -0.36691  -1.64983
H     2.00718   0.70171  -0.73858
H     0.66215   1.48169   1.87102
H     2.15767   2.07341   1.15249
H     1.76403   3.77201   2.27074
H     1.39367   5.46506   2.10007
H    -1.09712   3.43592  -1.17709
H    -1.10022   0.96169  -3.26774
H    -2.41150   0.39983  -2.19614
H    -2.24408   2.13978  -2.55409
