20
Generated by autodE on: 2022-06-26. E = -457.715330 Ha
C    -3.12722   0.56917  -0.03336
N    -1.82757  -0.08078  -0.06865
C    -1.74483  -1.43829  -0.40301
C    -0.57510  -2.08771  -0.51212
C     0.76071  -1.42375  -0.28564
C     0.57311   0.04853   0.04205
C     1.72650   0.92922   0.28568
N     2.94845   0.34457   0.20750
O     1.62154   2.14479   0.54868
C    -0.66756   0.60698   0.12478
H    -3.00786   1.60029   0.32166
H    -3.80872   0.04028   0.65130
H    -3.59174   0.59338  -1.03345
H    -2.70531  -1.93007  -0.56761
H    -0.59204  -3.14820  -0.77368
H     1.40457  -1.55054  -1.17982
H     1.31153  -1.94342   0.52543
H     3.77123   0.91474   0.36932
H     3.07262  -0.63826   0.00043
H    -0.77329   1.66691   0.36154
