29
Generated by autodE on: 2022-07-27. E = -762.164523 Ha
C     3.16972  -1.76494  -1.54407
N     2.70478  -1.06805  -0.35965
C     1.72715  -0.15256  -0.42793
O     1.21410   0.21607  -1.48984
C     1.34242   0.48505   0.87777
C     2.38435   0.79246   1.89773
N     0.11138   0.87398   1.09004
C    -1.08561   0.66439   0.41031
C    -2.14871   1.61481   0.62916
C    -1.87617   2.78624   1.56226
O    -3.26818   1.51382   0.10067
C    -1.28534  -0.53556  -0.38831
O    -2.10846  -0.68111  -1.27999
O    -0.48532  -1.55809   0.00566
C    -0.49719  -2.73257  -0.80758
H     3.47024  -1.04925  -2.32313
H     2.38130  -2.41367  -1.95929
H     4.03363  -2.38384  -1.27428
H     3.06231  -1.34942   0.54755
H     3.26365   1.25954   1.42838
H     2.72788  -0.13486   2.39003
H     1.98733   1.45791   2.67759
H     0.01411   1.45631   1.92691
H    -2.78760   3.39394   1.62497
H    -1.61744   2.44573   2.58040
H    -1.04840   3.41516   1.19792
H    -0.23471  -2.48611  -1.84689
H    -1.48611  -3.21395  -0.78850
H     0.25409  -3.40699  -0.37970
