25
Generated by autodE on: 2022-10-06. E = -909.385522 Ha
C     2.77528   2.48701   0.19947
C     2.47483   1.06260  -0.17716
O     3.33284   0.29889  -0.60997
C     1.09422   0.56810  -0.01576
N     0.16069   1.31747   0.47182
N    -0.98754   0.60576   0.50760
C    -2.18591   1.15602   0.88557
C    -2.16590   2.58955   1.33853
O    -3.20388   0.46739   0.84298
C    -0.87257  -0.72186  -0.12277
C    -1.64215  -0.79331  -1.46880
O    -1.83621   0.28496  -2.07934
O    -1.95089  -1.95128  -1.84193
C     0.65747  -0.83426  -0.35315
C     1.34356  -1.86344   0.59730
O     1.17772  -1.65953   1.82752
O     1.98740  -2.79614   0.06348
H     2.53890   2.65533   1.26169
H     3.83577   2.70044   0.01434
H     2.14526   3.17707  -0.38283
H    -3.17193   2.86175   1.68035
H    -1.86948   3.24259   0.50336
H    -1.43791   2.74042   2.14837
H    -1.25065  -1.49346   0.55870
H     0.90401  -1.09573  -1.39061
