15
Generated by autodE on: 2022-10-06. E = -454.229058 Ha
C     3.33510   0.65418  -0.89876
C     2.40858  -0.04530   0.04442
O     2.74349  -0.75573   0.97452
C     0.98455   0.16721  -0.20885
N    -0.15096   0.33326  -0.42038
N    -1.36233   0.54640  -0.69152
C    -2.26237  -0.11532   0.16242
C    -3.69372   0.16259  -0.18655
O    -1.90499  -0.83522   1.08419
H     4.37434   0.43800  -0.61873
H     3.14618   1.73980  -0.86796
H     3.13711   0.31658  -1.92943
H    -4.35959  -0.37681   0.49781
H    -3.89108  -0.14431  -1.22573
H    -3.88848   1.24507  -0.12679
