56
Generated by autodE on: 2022-06-29. E = -1396.070173 Ha
C    -2.44797   0.63507  -2.79835
C    -2.69222   0.02905  -1.44550
O    -3.68199   0.30249  -0.79243
C    -1.69226  -0.99287  -0.88996
C    -2.39929  -2.26839  -0.28781
C    -3.30744  -1.86644   0.85592
C    -2.48233  -1.56133   1.86317
C    -1.07788  -1.75932   1.31175
O    -1.28116  -2.84584   0.39768
C    -0.73940  -0.55224   0.32177
C    -1.00115   0.80953   0.94222
C    -0.97560   0.98128   2.33669
C    -1.14585   2.24060   2.91807
C    -1.35425   3.36484   2.11644
C    -1.37977   3.21406   0.72798
C    -1.19694   1.95580   0.15422
C     0.75153  -0.71514  -0.31984
C     1.27315   0.59018  -0.94820
C     1.74209   1.63745  -0.13902
C     2.20818   2.82760  -0.69827
C     2.21998   2.99737  -2.08584
C     1.77748   1.95502  -2.90275
C     1.31462   0.76114  -2.33942
C     1.82497  -1.24905   0.63571
C     2.78344  -2.15675   0.15390
C     3.81297  -2.62038   0.97749
C     3.91318  -2.17922   2.29867
C     2.97419  -1.26568   2.78460
C     1.94479  -0.80437   1.96116
N     0.55829  -1.72272  -1.37185
N    -0.71955  -1.42213  -1.90886
C    -1.05206  -2.04449  -3.02704
N    -1.34433  -2.56484  -4.03281
H    -2.71496  -0.10211  -3.57411
H    -3.09179   1.51568  -2.91525
H    -1.39185   0.89500  -2.95003
H    -2.79806  -2.93985  -1.05661
H    -4.39261  -1.80993   0.81230
H    -2.72949  -1.18642   2.85393
H    -0.28785  -1.99594   2.02670
H    -0.80638   0.13254   2.99750
H    -1.11546   2.33722   4.00572
H    -1.49188   4.34943   2.56925
H    -1.52932   4.08128   0.08105
H    -1.17134   1.88641  -0.93065
H     1.73768   1.53662   0.94508
H     2.56016   3.62753  -0.04274
H     2.58047   3.93018  -2.52583
H     1.79380   2.06348  -3.98989
H     0.99192  -0.04145  -2.99885
H     2.73716  -2.49940  -0.87949
H     4.54265  -3.32804   0.57681
H     4.71780  -2.54060   2.94321
H     3.03844  -0.90481   3.81370
H     1.23238  -0.09092   2.36816
H     0.46102  -2.62617  -0.89966
