28
Generated by autodE on: 2022-06-29. E = -691.408501 Ha
C    -2.59405   2.40683   0.79259
C    -1.31795   1.94094   0.13201
O    -0.41663   2.74245  -0.11827
C    -1.24516   0.51038  -0.17629
C    -0.19479  -0.35506  -0.29079
C     1.25561  -0.22562  -0.23943
C     2.02241  -1.33530   0.18590
C     3.41123  -1.25550   0.26792
C     4.06991  -0.07587  -0.09532
C     3.32658   1.02409  -0.53622
C     1.93574   0.95585  -0.60609
C    -0.87595  -1.75722  -0.34376
C    -1.44396  -2.03604   1.06220
C    -2.47127  -1.19007   1.18292
C    -2.49907  -0.41176  -0.15021
O    -2.06927  -1.42954  -1.06446
H    -2.85876   1.76449   1.64751
H    -2.48049   3.44725   1.12352
H    -3.42747   2.34507   0.07300
H     1.52738  -2.26378   0.47478
H     3.98327  -2.12006   0.61217
H     5.15946  -0.01665  -0.04027
H     3.83592   1.94482  -0.83052
H     1.35652   1.81282  -0.94085
H    -0.30583  -2.55357  -0.83153
H    -1.01920  -2.73434   1.78225
H    -3.13022  -1.00546   2.03055
H    -3.44881   0.03971  -0.45268
