28
Generated by autodE on: 2022-06-29. E = -704.635071 Ha
N     2.52181   2.72709  -0.99831
C     1.54428   2.26343  -1.46646
N     0.48861   1.87909  -2.13925
N    -0.39608   1.04509  -1.55977
C    -0.33261   0.24189  -0.51446
C     0.94425  -0.07615   0.14704
C     1.04051  -0.03120   1.54949
C     2.23522  -0.37347   2.18137
C     3.33702  -0.78616   1.42380
C     3.24204  -0.85063   0.03013
C     2.05605  -0.49110  -0.60918
C    -1.58983  -0.36629  -0.05251
C    -2.82250   0.30357  -0.19256
C    -4.00715  -0.30425   0.22218
C    -3.98110  -1.58036   0.79375
C    -2.76093  -2.24713   0.95126
C    -1.57358  -1.64731   0.53564
H    -1.28890   1.06031  -2.05864
H     0.17718   0.28268   2.13893
H     2.30648  -0.32198   3.27001
H     4.27009  -1.06047   1.92134
H     4.09728  -1.18074  -0.56347
H     1.98424  -0.54410  -1.69702
H    -2.85477   1.31817  -0.59504
H    -4.95371   0.22975   0.11415
H    -4.90948  -2.05134   1.12453
H    -2.73481  -3.24370   1.39739
H    -0.62740  -2.17789   0.64921
