86
Generated by autodE on: 2022-07-06. E = -4492.284597 Ha
C    -8.03219  -8.56086 -16.97816
N    -7.45056  -9.06462 -15.75147
C    -6.36575  -8.52400 -15.18112
O    -5.70176  -7.62482 -15.69878
C    -5.79458  -9.18201 -13.89341
Br   -7.25917 -10.31727 -12.97136
C    -4.81390 -10.25108 -14.42002
C    -3.62038  -9.76250 -15.25330
C    -2.88643  -8.51521 -14.77106
C    -2.14812  -8.56780 -13.44112
C    -2.91480  -8.88383 -12.11835
C    -3.20023 -10.38806 -11.90339
C    -2.29766 -11.36313 -12.35655
C    -2.52118 -12.71923 -12.10829
C    -3.64353 -13.13040 -11.38234
C    -4.52898 -12.16538 -10.89679
C    -4.30582 -10.81034 -11.15013
C    -1.93604  -8.59233 -10.92560
C    -0.61281  -8.16570 -11.12701
C     0.26616  -7.97734 -10.05637
C    -0.15091  -8.20581  -8.74508
C    -1.45286  -8.66419  -8.52615
C    -2.31619  -8.87493  -9.60185
C    -4.21189  -8.02773 -12.12303
C    -5.35312  -8.16396 -12.85560
C    -6.37101  -7.04778 -12.42944
C    -7.33510  -7.56371 -11.39709
N    -8.10118  -7.77122 -10.54991
C    -7.23416  -6.38103 -13.52160
C    -8.53522  -6.81748 -13.79420
C    -9.29949  -6.20032 -14.79021
C    -8.77199  -5.13288 -15.51785
C    -7.47701  -4.68155 -15.23804
C    -6.71697  -5.29885 -14.24608
N    -5.49076  -6.07529 -11.81989
C    -6.06485  -4.95698 -11.10173
C    -4.27595  -6.71773 -11.30081
C    -4.57500  -7.03967  -9.80682
O    -5.20868  -8.06044  -9.51597
N    -4.28370  -6.11527  -8.88118
C    -4.67346  -6.29225  -7.49564
C    -3.07796  -5.80208 -11.61571
C    -3.02117  -5.26499 -12.91341
C    -1.96500  -4.44745 -13.31237
C    -0.93780  -4.14037 -12.41243
C    -0.97639  -4.67599 -11.12524
C    -2.03016  -5.50913 -10.73380
H    -7.43820  -7.70998 -17.33081
H    -9.06556  -8.22582 -16.80365
H    -8.04137  -9.33924 -17.75729
H    -7.96407  -9.76375 -15.22517
H    -5.41128 -10.92306 -15.05135
H    -4.47802 -10.85385 -13.57929
H    -2.91746 -10.61031 -15.31782
H    -3.96323  -9.56778 -16.28098
H    -3.58343  -7.66912 -14.77386
H    -2.12383  -8.26819 -15.52874
H    -1.70999  -7.57142 -13.31214
H    -1.29946  -9.25960 -13.51875
H    -1.40995 -11.07419 -12.91816
H    -1.81087 -13.45871 -12.48624
H    -3.82093 -14.19157 -11.19231
H    -5.40902 -12.46534 -10.32295
H    -5.00643 -10.07126 -10.76669
H    -0.23921  -7.94609 -12.12293
H     1.28367  -7.63395 -10.25806
H     0.53210  -8.04629  -7.90744
H    -1.80126  -8.87523  -7.51205
H    -3.30598  -9.26770  -9.39634
H    -8.96394  -7.64833 -13.23336
H   -10.31170  -6.55790 -14.99102
H    -9.36781  -4.64857 -16.29499
H    -7.05670  -3.84111 -15.79525
H    -5.71108  -4.94374 -14.02972
H    -6.79510  -4.44590 -11.74363
H    -6.57711  -5.24030 -10.16263
H    -5.26955  -4.23762 -10.86162
H    -3.81842  -5.25834  -9.15508
H    -5.76187  -6.43386  -7.40567
H    -4.17666  -7.17310  -7.05790
H    -4.37902  -5.40060  -6.92874
H    -3.81073  -5.51150 -13.62157
H    -1.94236  -4.05121 -14.33019
H    -0.11047  -3.49539 -12.71776
H    -0.17252  -4.46602 -10.41621
H    -1.99612  -5.95023  -9.74083
