47
Generated by autodE on: 2022-07-06. E = -3556.174103 Ha
C     2.20887  -2.47289  -3.81550
N     1.52587  -2.04800  -2.60896
C     0.38124  -2.62094  -2.20974
O    -0.18695  -3.51480  -2.83792
C    -0.20863  -2.08315  -0.89478
Br    0.41055  -3.44186   0.50423
C     0.24797  -0.78393  -0.45865
C     0.16358   0.31196   0.05472
C    -0.42586   1.49644   0.68494
C    -0.60309   2.58617  -0.38855
C    -1.81124   3.26277  -0.59315
C    -1.90429   4.27512  -1.55648
C    -0.79291   4.62314  -2.32612
C     0.41902   3.95124  -2.12719
C     0.50931   2.94277  -1.16785
C     0.41057   2.04889   1.84672
C     0.05619   3.27350   2.43270
C     0.76990   3.77183   3.52448
C     1.85348   3.05500   4.04449
C     2.21340   1.83614   3.46434
C     1.49468   1.33606   2.37325
C    -1.77615   0.94261   1.26084
C    -2.65435   0.10969   0.30166
C    -2.45669  -1.43338   0.28245
C    -1.74713  -2.06628  -0.92736
H     2.56450  -3.51234  -3.72843
H     3.07055  -1.81665  -3.98573
H     1.53830  -2.41504  -4.68649
H     1.93129  -1.31037  -2.04112
H    -2.69313   3.01285  -0.00376
H    -2.85612   4.79144  -1.70265
H    -0.86828   5.41246  -3.07773
H     1.29695   4.21419  -2.72222
H     1.45866   2.42339  -1.01454
H    -0.78166   3.84486   2.02797
H     0.48076   4.72723   3.96908
H     2.41486   3.44687   4.89593
H     3.05899   1.26816   3.85995
H     1.77990   0.38037   1.92828
H    -1.51679   0.33104   2.13849
H    -2.34518   1.80040   1.64785
H    -3.69588   0.29568   0.60599
H    -2.57658   0.50702  -0.72329
H    -1.96159  -1.76365   1.21075
H    -3.45812  -1.88930   0.30708
H    -2.08321  -3.10180  -1.07480
H    -2.02195  -1.51626  -1.84443
