39
Generated by autodE on: 2022-07-27. E = -936.032738 Ha
C    -1.26361   1.45319   1.94910
N    -0.42687   0.42926   2.53770
C     0.58407  -0.26368   1.96943
O     1.24431  -1.08905   2.61779
C     0.98608   0.05724   0.55877
C     2.43344   0.21455   0.34382
C     3.11497  -0.47809  -0.67683
C     4.49400  -0.33729  -0.83042
C     5.21988   0.48779   0.03574
C     4.55700   1.16589   1.06439
C     3.17804   1.02828   1.22037
N     0.09646   0.08347  -0.44901
C     0.40125   0.86608  -1.67023
C    -1.10813  -0.58969  -0.38409
C    -1.15036  -1.76180   0.39415
N    -1.21382  -2.74582   0.98965
C    -2.32383  -0.16998  -1.09101
C    -3.26511  -1.14421  -1.49155
C    -4.44020  -0.78011  -2.14639
C    -4.70943   0.56496  -2.42366
C    -3.79272   1.54190  -2.02176
C    -2.62071   1.18496  -1.35506
H    -2.19978   1.04004   1.54252
H    -1.51920   2.19423   2.71938
H    -0.72823   1.97313   1.14526
H    -0.66676   0.10930   3.47337
H     2.56200  -1.14582  -1.34065
H     5.00721  -0.88525  -1.62405
H     6.30014   0.59535  -0.08589
H     5.11734   1.80791   1.74792
H     2.66464   1.56402   2.02198
H    -0.23589   0.52353  -2.48966
H     0.23156   1.93156  -1.47023
H     1.44722   0.72394  -1.94632
H    -3.06407  -2.19887  -1.29155
H    -5.14840  -1.55491  -2.44964
H    -5.62878   0.84930  -2.94037
H    -3.99777   2.59776  -2.21428
H    -1.94430   1.96870  -1.01619
