49
Generated by autodE on: 2022-06-03. E = -1576.051477 Ha
C     2.68376   3.10764   1.71211
N     1.80378   2.33722   0.85448
C     2.27042   1.48829  -0.06136
O     3.46049   1.32551  -0.33150
C     1.19781   0.62915  -0.79653
C     1.63994   0.61078  -2.21870
N     1.89425   0.73812  -3.34364
N    -0.15433   1.13359  -0.66068
C    -0.46035   2.34402  -1.41821
C    -1.15478   0.04250  -0.72624
C    -1.55838  -0.27281  -2.18143
C    -2.39574   0.39942   0.09961
C    -3.54576  -0.40218   0.00631
C    -4.67300  -0.13672   0.78683
C    -4.67715   0.94295   1.67523
C    -3.53993   1.74724   1.77652
C    -2.40991   1.47483   0.99917
C    -0.38808  -1.18576  -0.10733
F    -0.68596  -2.31391  -0.84981
C    -0.60745  -1.47117   1.39004
C     0.11685  -2.78759   1.74983
C     1.61506  -2.37467   1.77682
C     1.58296  -0.90216   1.32068
C     0.30549  -0.42046   2.04073
C     1.14993  -0.81946  -0.16740
Cl    2.08869  -1.96487  -1.20173
H     2.10198   3.89635   2.20461
H     3.48551   3.56866   1.11795
H     3.14787   2.47172   2.48421
H     0.79922   2.35041   1.00835
H     0.23365   3.14691  -1.13561
H    -1.47801   2.67695  -1.18027
H    -0.38944   2.20252  -2.51066
H    -2.08826   0.58550  -2.61508
H    -2.22041  -1.14302  -2.23283
H    -0.67775  -0.49200  -2.80038
H    -3.56026  -1.26027  -0.66659
H    -5.55204  -0.77991   0.70027
H    -5.55962   1.15421   2.28371
H    -3.52598   2.59424   2.46670
H    -1.52994   2.10895   1.09858
H    -1.66361  -1.44960   1.67512
H    -0.09292  -3.58167   1.02238
H    -0.22399  -3.13684   2.73444
H     2.25231  -3.00328   1.14466
H     2.02021  -2.40860   2.79806
H     2.51428  -0.36366   1.52652
H     0.01566   0.61121   1.82925
H     0.38141  -0.54901   3.12951
