32
Generated by autodE on: 2022-07-27. E = -744.226151 Ha
C     5.01186   1.47022   0.02181
N     3.69790   1.34223  -0.57162
C     2.62667   0.92703   0.16475
O     2.71545   0.81637   1.40690
C     1.40481   0.63535  -0.56682
C     1.36144   0.57125  -1.96149
N     1.32477   0.51659  -3.13489
N     0.20611   0.34139   0.14211
C    -0.22778   1.35194   1.12513
C    -0.50693  -0.73554  -0.12811
C     0.07885  -1.83692  -0.93834
C    -1.90941  -0.85385   0.31883
C    -2.83729   0.17151   0.05580
C    -4.17002   0.02861   0.44088
C    -4.59094  -1.12872   1.10382
C    -3.67541  -2.15316   1.36628
C    -2.34620  -2.02588   0.96362
H     4.98879   2.14792   0.88861
H     5.41664   0.50177   0.36623
H     5.69962   1.88664  -0.72528
H     3.63020   1.33706  -1.58329
H     0.66828   1.69383   1.65155
H    -0.69683   2.19801   0.60639
H    -0.92696   0.91072   1.84227
H    -0.42240  -2.78419  -0.70313
H    -0.06918  -1.64774  -2.01663
H     1.16331  -1.91397  -0.76839
H    -2.51927   1.07182  -0.47163
H    -4.88384   0.82514   0.21987
H    -5.63391  -1.23489   1.41076
H    -3.99868  -3.05890   1.88390
H    -1.63674  -2.82931   1.16980
