32
Generated by autodE on: 2022-06-03. E = -744.226729 Ha
C    -3.23175   0.42344  -1.93602
N    -2.50712   0.58281  -0.69318
C    -1.53508  -0.30445  -0.32469
O    -1.09498  -1.14098  -1.14100
C    -1.05043  -0.20858   1.03998
C    -1.66726   0.58036   2.01202
N    -2.19844   1.25209   2.81775
N     0.05404  -1.01358   1.42594
C    -0.14219  -1.90558   2.57874
C     1.13768  -1.09685   0.68410
C     2.08977  -2.23049   0.88265
C     1.46649  -0.04783  -0.30054
C     1.35562   1.31248   0.04712
C     1.73255   2.30048  -0.85933
C     2.20212   1.95012  -2.13187
C     2.31121   0.60291  -2.48464
C     1.95597  -0.39198  -1.57128
H    -3.82572   1.32774  -2.12309
H    -3.91542  -0.44507  -1.92629
H    -2.53078   0.28792  -2.77187
H    -2.92651   1.16322   0.02528
H     0.80382  -2.08420   3.10108
H    -0.57040  -2.85983   2.23795
H    -0.84776  -1.42590   3.26658
H     2.78493  -2.30298   0.03900
H     1.56699  -3.18917   1.01048
H     2.69173  -2.05226   1.79091
H     0.98995   1.59280   1.03555
H     1.66053   3.35186  -0.57210
H     2.48677   2.72868  -2.84333
H     2.67593   0.32173  -3.47503
H     2.03548  -1.44227  -1.85610
