49
Generated by autodE on: 2022-06-03. E = -1575.964548 Ha. Imaginary frequency = -338.1 cm-1
C     4.31221   2.34531   0.37651
N     3.25126   1.84765  -0.47561
C     1.95311   1.91498  -0.08012
O     1.63139   2.52766   0.94783
C     0.98354   1.16390  -0.91992
C     1.43451   0.85257  -2.23041
N     1.87942   0.65588  -3.29312
N    -0.38925   1.27057  -0.66937
C    -0.90955   2.54776  -0.13645
C    -1.21686   0.19434  -0.88122
C    -1.02324  -0.61616  -2.14343
C    -2.61404   0.26351  -0.37018
C    -3.69840  -0.10068  -1.19438
C    -5.00839  -0.08064  -0.71293
C    -5.26912   0.29125   0.60822
C    -4.20550   0.65146   1.44167
C    -2.89808   0.64189   0.95901
C    -0.12400  -1.39177   0.36063
F    -0.58590  -2.48379  -0.30523
C    -0.43770  -1.32125   1.84184
C     0.37402  -2.48392   2.49371
C     1.84767  -2.00592   2.35549
C     1.71196  -0.64191   1.60717
C     0.41298  -0.10496   2.24394
C     1.21714  -0.99284   0.21583
Cl    2.28072  -1.83097  -0.88893
H     4.11204   3.38387   0.67620
H     5.25721   2.31583  -0.18053
H     4.42580   1.74326   1.29519
H     3.50624   1.21395  -1.22535
H    -0.28944   3.35874  -0.53033
H    -0.89962   2.60298   0.95658
H    -1.93408   2.68239  -0.50045
H    -1.28765   0.01276  -3.01036
H    -1.67182  -1.49555  -2.13940
H     0.00097  -0.96541  -2.28478
H    -3.52701  -0.38875  -2.23082
H    -5.82961  -0.35787  -1.37781
H    -6.29376   0.30026   0.98685
H    -4.39293   0.94033   2.47828
H    -2.09078   0.92309   1.63028
H    -1.50382  -1.30645   2.09548
H     0.18318  -3.43916   1.98478
H     0.08147  -2.59760   3.54772
H     2.48211  -2.71120   1.80167
H     2.31113  -1.83294   3.33785
H     2.60249  -0.00613   1.65547
H     0.50393   0.00087   3.33438
H     0.08064   0.84374   1.81730
