35
Generated by autodE on: 2022-05-29. E = -1118.539433 Ha
C     4.33247  -0.76713  -0.54875
N     3.18542  -0.24434   0.16555
C     2.33386   0.62651  -0.39032
O     2.46036   1.06056  -1.54074
C     1.19403   1.12789   0.52545
C     1.62754   2.49918   1.04573
N     0.97943   0.19657   1.64602
C     0.15488  -0.87935   1.08888
C    -0.55397  -1.62313   2.12724
N    -1.11364  -2.21913   2.94959
C    -0.78253  -0.25676  -0.01445
C    -0.85309  -1.20049  -1.20006
F    -1.45172  -2.35800  -0.84773
F     0.37766  -1.51928  -1.65777
F    -1.52873  -0.70757  -2.24743
C    -2.18469   0.17802   0.56739
C    -2.98860   0.85300  -0.53300
C    -2.40083   2.04087  -0.71584
C    -1.24554   2.07716   0.26739
O    -1.76427   1.29220   1.36212
C    -0.12808   1.13345  -0.29043
H     5.05709   0.02946  -0.78289
H     4.82712  -1.52279   0.07370
H     4.02404  -1.23396  -1.49732
H     2.98446  -0.53526   1.11885
H     1.69547   3.21371   0.21390
H     2.61388   2.42780   1.52634
H     0.91226   2.88204   1.78773
H     0.42472   0.69138   2.34622
H     0.82173  -1.60777   0.60327
H    -2.68715  -0.58460   1.17077
H    -3.80650   0.39372  -1.08603
H    -2.61314   2.80516  -1.46327
H    -0.90986   3.06026   0.60706
H     0.07415   1.33201  -1.34787
