16
Generated by autodE on: 2022-05-29. E = -644.713708 Ha
F     2.23871  -0.26752   0.89277
C     1.50032   0.25334  -0.11138
F     2.14912  -0.01019  -1.25804
F     1.52059   1.59505   0.06257
C     0.11384  -0.26151  -0.10760
C    -0.57859  -0.85616  -1.08104
C    -2.00512  -0.99844  -0.50038
C    -2.59585   0.42864  -0.41284
C    -1.90156   1.02895   0.55768
C    -0.89859  -0.04116   1.04565
O    -1.68871  -1.23123   0.88690
H    -0.26769  -1.12436  -2.08955
H    -2.63816  -1.78663  -0.92066
H    -3.36744   0.82709  -1.07048
H    -1.94728   2.05502   0.92019
H    -0.48782   0.06078   2.05550
