35
Generated by autodE on: 2022-05-29. E = -1118.454663 Ha. Imaginary frequency = -213.6 cm-1
C     4.25475   0.68494  -1.56149
N     3.29812   1.21078  -0.60883
C     2.50649   0.38339   0.11064
O     2.61273  -0.85056   0.00733
C     1.53413   1.03882   1.02004
C     1.70652   2.47660   1.41178
N     0.77282   0.28090   1.82970
C     0.30744  -0.96613   1.59082
C    -0.68042  -1.49745   2.44301
N    -1.53531  -1.94266   3.10447
C    -0.90900  -0.18168  -0.41667
C    -0.88578  -1.44554  -1.18665
F    -1.80078  -1.42643  -2.19523
F     0.30685  -1.68931  -1.76013
F    -1.20033  -2.53308  -0.44449
C    -2.20947   0.32903   0.26094
C    -3.04060   1.02995  -0.83293
C    -2.35362   2.13924  -1.12794
C    -1.11515   2.10024  -0.21023
O    -1.67584   1.46657   0.95841
C    -0.21241   0.95984  -0.72924
H     5.00919   0.05319  -1.06603
H     3.75790   0.07281  -2.33162
H     4.76442   1.52403  -2.05042
H     3.19132   2.21460  -0.53005
H     2.67523   2.64875   1.91132
H     1.66400   3.13714   0.53280
H     0.90471   2.79155   2.09410
H     0.21432   0.82403   2.48955
H     0.90754  -1.62886   0.97760
H    -2.72783  -0.36174   0.93380
H    -3.94910   0.63208  -1.28343
H    -2.54513   2.89445  -1.88976
H    -0.63978   3.05579   0.03014
H     0.52235   1.08102  -1.52205
