21
Generated by autodE on: 2022-05-29. E = -512.791244 Ha
C    -1.95573  -1.52998   0.77440
N    -2.01006  -0.14422   0.26197
N    -3.20138   0.34306   0.23283
C    -0.85832   0.46596  -0.13602
C    -0.99827   1.73193  -0.74755
N    -1.09650   2.77845  -1.26030
C     0.50055  -0.09704   0.00971
C     0.96372  -0.65797   1.21578
C     2.26647  -1.14944   1.31437
C     3.13855  -1.06874   0.22417
C     2.69797  -0.48872  -0.97000
C     1.39241  -0.00931  -1.07779
H    -2.91894  -1.98920   0.53294
H    -1.13468  -2.07755   0.30325
H    -1.81958  -1.50778   1.86252
H    -3.13730   1.31379  -0.10425
H     0.30987  -0.69307   2.08770
H     2.60673  -1.58414   2.25716
H     4.15935  -1.44868   0.30736
H     3.37229  -0.41610  -1.82650
H     1.05116   0.43340  -2.01636
