43
Generated by autodE on: 2022-05-29. E = -938.366627 Ha. Imaginary frequency = -318.9 cm-1
C    -3.60116  -1.86985   0.69294
C    -2.63387  -1.26232  -0.29351
O    -2.63882  -1.60975  -1.47830
C    -1.69635  -0.25353   0.21512
N    -0.26997  -1.90118   0.59806
N     0.41882  -1.76656  -0.50870
C     0.18665  -2.77565  -1.55071
C     0.95739  -0.52716  -0.85029
C     1.25617  -0.36390  -2.24699
N     1.46675  -0.14895  -3.37138
C     1.95276   0.13684   0.05131
C     2.47800  -0.51377   1.18070
C     3.41322   0.12674   1.99596
C     3.85147   1.41861   1.69162
C     3.35923   2.05878   0.55012
C     2.42247   1.42307  -0.26507
C    -0.91435   0.57331  -0.64099
C    -0.75088   1.88893   0.10692
C    -2.16807   2.54687   0.09781
C    -2.98522   1.64626   1.07090
C    -1.94739   0.55705   1.48548
C    -0.67209   1.41590   1.57247
H    -3.06536  -2.24726   1.57670
H    -4.30977  -1.10273   1.04524
H    -4.15924  -2.68563   0.21452
H     0.07272  -1.23075   1.28776
H    -0.39532  -3.58455  -1.09916
H     1.15342  -3.16268  -1.90161
H    -0.36947  -2.35133  -2.39441
H     2.16662  -1.52891   1.43021
H     3.80634  -0.39485   2.87158
H     4.58086   1.91845   2.33282
H     3.70662   3.06107   0.28940
H     2.05375   1.92890  -1.15896
H    -1.09134   0.57259  -1.71854
H     0.04448   2.54958  -0.25432
H    -2.59495   2.58173  -0.91516
H    -2.09959   3.58072   0.46823
H    -3.31173   2.21042   1.95764
H    -3.87977   1.21004   0.60407
H    -2.22344  -0.02205   2.37525
H     0.23602   0.85171   1.81521
H    -0.77036   2.24392   2.29014
