49
Generated by autodE on: 2022-06-25. E = -1468.043316 Ha
C     0.74050   2.89889   3.40264
O     0.90057   2.14953   2.18476
C    -0.18545   2.01177   1.43804
O    -1.29556   2.45431   1.69042
N     0.05926   1.31811   0.28371
O     1.33973   0.72635   0.11245
C     1.20876  -0.31637  -0.85321
C     1.55051   0.18743  -2.28459
C     2.27110   1.49764  -2.37369
O     1.32643  -0.52822  -3.23655
C     2.23600  -1.41490  -0.51229
O     2.49179  -2.32982  -1.26203
O     2.85420  -1.17980   0.63387
C     3.81462  -2.16387   1.05456
C    -0.31308  -0.71790  -0.70783
O    -0.94761  -1.34975  -1.76350
C    -0.65735  -2.72080  -2.05203
C    -0.49331  -1.51133   0.61648
O     0.28611  -2.42293   0.84386
C    -1.61548  -1.20622   1.52603
C    -1.77267  -2.07005   2.73908
C    -2.48242  -0.18876   1.26277
C    -3.64625   0.11817   2.14696
C    -2.32943   0.62588   0.03530
O    -3.26633   1.15719  -0.52189
C    -0.91552   0.70657  -0.58109
O    -0.93270   1.27446  -1.85397
C    -1.08750   2.69437  -1.92459
H     0.00481   2.41034   4.05662
H     0.41847   3.92560   3.17946
H     1.72794   2.90411   3.87721
H     1.72612   2.30406  -1.86643
H     3.24024   1.39469  -1.85607
H     2.43785   1.74877  -3.42865
H     3.31493  -3.13136   1.20577
H     4.60923  -2.26917   0.30292
H     4.22646  -1.79375   1.99983
H    -0.97216  -3.38484  -1.23245
H    -1.24320  -2.95804  -2.94929
H     0.40973  -2.86610  -2.25989
H    -0.94697  -2.78505   2.82743
H    -2.72053  -2.63151   2.69155
H    -1.81440  -1.45181   3.64959
H    -4.26890   0.91447   1.72250
H    -4.26648  -0.77867   2.30432
H    -3.28720   0.43513   3.14011
H    -0.31558   3.20810  -1.33132
H    -2.08228   3.00447  -1.57821
H    -0.96331   2.95868  -2.98222
