23
Generated by autodE on: 2022-06-25. E = -778.499624 Ha
C     2.45692   1.38137  -1.03093
O     1.41169   0.39809  -1.00298
C     0.46326   0.47517  -1.94598
O     0.47654   1.27191  -2.86828
N    -0.49206  -0.52308  -1.89785
O    -0.62308  -1.19105  -0.72619
C    -0.46646  -0.85975   0.49835
C    -0.80104  -1.94762   1.47886
C    -1.14686  -3.29187   0.92009
O    -0.78058  -1.67742   2.66630
C    -0.09486   0.51290   0.99421
O     0.70520   0.70029   1.87794
O    -0.82014   1.43179   0.37747
C    -0.57291   2.80934   0.72823
H     3.11518   1.20647  -1.89386
H     3.01179   1.25349  -0.09470
H     2.02967   2.39161  -1.08787
H    -1.99828  -3.20811   0.22630
H    -1.39440  -3.96960   1.74590
H    -0.29707  -3.68948   0.34246
H     0.48738   3.04968   0.57284
H    -1.20663   3.40239   0.06079
H    -0.84722   2.98113   1.77814
