23
Generated by autodE on: 2022-07-27. E = -778.509077 Ha
C    -2.22629   3.79918   1.71162
O    -1.64165   3.03947   0.64793
C    -1.12430   1.84986   0.98752
O    -1.12676   1.39037   2.11580
N    -0.60943   1.27716  -0.16961
O    -0.10627   0.08293   0.19299
C     0.48480  -0.68033  -0.63517
C     0.72438  -0.32010  -2.08389
C     1.30422   1.02064  -2.40913
O     0.46297  -1.16989  -2.91193
C     0.93881  -1.99779  -0.09406
O     1.62074  -2.75879  -0.74655
O     0.52562  -2.19635   1.14790
C     0.93948  -3.42477   1.77470
H    -2.58526   4.72959   1.25631
H    -1.47759   4.02121   2.48650
H    -3.06606   3.25104   2.16385
H     0.49630   1.68099  -2.76238
H     1.77780   1.49378  -1.53813
H     2.02811   0.88931  -3.22708
H     0.55196  -4.28491   1.21069
H     2.03661  -3.47448   1.82009
H     0.51318  -3.40223   2.78331
