49
Generated by autodE on: 2022-06-25. E = -1467.984534 Ha. Imaginary frequency = -130.2 cm-1
C    -0.97835   4.12288   2.23597
O    -0.54960   3.33184   1.12145
C     0.25219   2.29501   1.39746
O     0.69519   2.03733   2.50371
N     0.47214   1.60033   0.21554
O     1.21313   0.50095   0.53305
C     1.50168  -0.28526  -0.48933
C     1.87295   0.25030  -1.84433
C     2.18602   1.71098  -2.01354
O     1.96003  -0.53032  -2.77745
C     2.10115  -1.58968  -0.04407
O     2.63668  -2.38484  -0.78630
O     1.95593  -1.76909   1.26417
C     2.43951  -3.01320   1.79777
C    -0.72235  -0.90318  -1.14920
O    -0.63054  -1.27024  -2.42559
C    -0.21012  -2.56914  -2.87461
C    -0.82001  -1.88065  -0.01980
O    -0.57494  -3.06820  -0.19417
C    -1.18982  -1.36337   1.32510
C    -0.98034  -2.27089   2.49672
C    -1.76658  -0.14197   1.46307
C    -2.23621   0.37054   2.78815
C    -2.01262   0.72256   0.27671
O    -2.82481   1.63879   0.30934
C    -1.26040   0.41181  -0.96868
O    -1.35479   1.12464  -2.06508
C    -1.71905   2.51850  -2.08148
H    -1.66160   4.87462   1.82468
H    -1.50181   3.49772   2.97341
H    -0.11806   4.61293   2.71447
H     2.89399   1.79878  -2.84951
H     1.26285   2.25057  -2.27268
H     2.59652   2.16797  -1.10398
H     1.93205  -3.85432   1.30597
H     3.52490  -3.09433   1.64529
H     2.20277  -2.99167   2.86657
H     0.71678  -2.88111  -2.38593
H    -1.00359  -3.30734  -2.70007
H    -0.04317  -2.44869  -3.95210
H    -0.54398  -3.22741   2.18951
H    -1.93475  -2.46811   3.01165
H    -0.31430  -1.79242   3.23230
H    -2.67302   1.37172   2.69611
H    -2.99136  -0.30587   3.22174
H    -1.39591   0.40927   3.49861
H    -2.80805   2.62616  -2.01566
H    -1.23338   3.04985  -1.25548
H    -1.35718   2.89184  -3.04687
