25
Generated by autodE on: 2022-06-03. E = -536.027644 Ha
C    -2.12435  -1.47218  -2.77577
C    -1.20778  -0.34151  -2.30094
C    -1.23586  -0.10079  -0.86298
C    -0.89713   0.14352   0.27526
C     0.11518   0.39126   1.31170
C    -0.31929   1.38873   2.31185
N    -0.64516   2.19817   3.07421
C     0.42459  -0.87305   2.01743
N     0.69424  -1.87255   2.53816
C     1.40936   0.92038   0.57709
C     1.88078   0.06257  -0.61082
C     1.31494   0.36577  -2.02777
C     0.28662  -0.61181  -2.63402
H    -1.86698  -2.41920  -2.27616
H    -3.17986  -1.24494  -2.56352
H    -2.01362  -1.61396  -3.86157
H    -1.50787   0.59609  -2.80143
H     1.17720   1.94419   0.24883
H     2.19828   0.98535   1.34122
H     2.96903   0.22003  -0.65554
H     1.75463  -1.00717  -0.37159
H     0.91301   1.39332  -2.05758
H     2.17594   0.36978  -2.71374
H     0.37386  -0.59341  -3.73240
H     0.52980  -1.64040  -2.31687
