31
Generated by autodE on: 2022-06-03. E = -651.922764 Ha
C     4.34048   1.15986   1.16282
N     3.00723   0.60737   1.25574
C     2.51536  -0.20911   0.25101
O     3.32403  -0.67797  -0.59462
C     1.10698  -0.43354   0.32368
N     0.35877  -1.23526  -0.51856
C     1.02960  -2.38435  -1.16308
C    -0.95918  -1.12084  -0.68299
C    -1.72374  -2.22502  -1.35226
C    -1.69495   0.05505  -0.17749
C    -2.91845  -0.11468   0.49884
C    -3.66645   0.98940   0.91735
C    -3.21643   2.28487   0.65409
C    -2.00756   2.46847  -0.03140
C    -1.25148   1.37075  -0.43436
H     5.08396   0.36005   1.03357
H     4.57244   1.69730   2.09242
H     4.46372   1.86434   0.31779
H     2.32755   1.14541   1.78263
H     0.52670   0.16424   1.02163
H     2.10716  -2.26644  -1.04201
H     0.78056  -2.41351  -2.23033
H     0.68490  -3.31290  -0.68838
H    -1.36968  -2.40295  -2.38116
H    -2.78696  -1.96668  -1.41110
H    -1.63081  -3.18417  -0.81315
H    -3.28332  -1.12252   0.70757
H    -4.60694   0.83246   1.45097
H    -3.80223   3.14876   0.97655
H    -1.65383   3.47783  -0.25524
H    -0.31093   1.52999  -0.96461
