56
Generated by autodE on: 2022-06-03. E = -1187.944287 Ha. Imaginary frequency = -105.0 cm-1
C   -12.98379  -3.42250   3.03129
N   -12.39553  -2.70995   4.14695
C   -11.53472  -3.32565   5.00746
O   -11.50077  -4.57989   5.05829
C   -10.76933  -2.50965   5.93150
C    -8.13136  -3.16879   5.93083
C    -7.67675  -2.29393   5.19409
C    -6.57735  -2.06013   4.22501
C    -6.48794  -0.69677   3.65634
N    -6.38890   0.34127   3.15184
C    -5.30753  -2.30503   4.94895
N    -4.32899  -2.52444   5.53225
C    -6.69616  -3.07528   3.00318
C    -7.41668  -4.39525   3.28564
C    -6.89907  -5.30131   4.43154
C    -7.92658  -5.58305   5.54182
C    -8.05911  -4.47580   6.61731
C    -9.13695  -4.81170   7.64702
C    -9.85619  -0.65263   4.67119
C    -9.90478  -1.37091   3.35756
C    -9.39358   0.75526   4.63820
C    -8.43685   1.27044   5.53512
C    -7.96888   2.57812   5.40933
C    -8.43599   3.40055   4.37944
C    -9.37141   2.89851   3.46965
C    -9.83950   1.58952   3.59364
N   -10.38358  -1.19875   5.77854
C   -10.29506  -0.48717   7.07134
H   -13.59298  -4.27143   3.37668
H   -12.21458  -3.81803   2.34437
H   -13.63116  -2.73565   2.47126
H   -12.42309  -1.69852   4.12682
H   -10.77859  -2.85353   6.96151
H    -7.24413  -2.54673   2.21152
H    -5.67350  -3.24192   2.63368
H    -8.48386  -4.18281   3.44459
H    -7.36994  -4.95118   2.33523
H    -5.98202  -4.88650   4.88197
H    -6.59744  -6.26865   4.00115
H    -7.65460  -6.51099   6.07122
H    -8.91863  -5.75348   5.09149
H    -7.09081  -4.43135   7.15197
H    -8.86601  -5.74155   8.17067
H   -10.11032  -4.96046   7.16097
H    -9.23700  -4.01376   8.39813
H    -9.09710  -1.00452   2.71166
H    -9.79644  -2.45478   3.48762
H   -10.85332  -1.20365   2.81844
H    -8.01717   0.62717   6.30786
H    -7.21863   2.95066   6.11076
H    -8.06506   4.42334   4.28006
H    -9.73996   3.52925   2.65712
H   -10.56928   1.21041   2.87591
H    -9.33529  -0.71617   7.55451
H   -11.11535  -0.83290   7.70826
H   -10.38763   0.59179   6.92462
