51
Generated by autodE on: 2022-10-22. E = -1354.753509 Ha
C     3.25236  -1.33420  -2.93199
O     2.58372  -1.11275  -1.68178
C     1.74885  -0.08250  -1.60669
O     1.62186   0.74096  -2.48741
C     1.03452  -0.02583  -0.23077
C     1.45251   1.28924   0.42373
C     2.19588   1.29730   1.61052
C     2.57070   2.50664   2.20527
C     2.20407   3.72135   1.62302
C     1.46313   3.71929   0.43624
C     1.09368   2.51382  -0.16050
N     1.38444  -1.16141   0.62919
N     0.63432  -2.27324   0.12244
C     1.23182  -3.24007  -0.56082
N     1.74143  -4.15685  -1.07963
C    -0.72404  -1.80212  -0.17364
O    -1.61078  -2.12231   0.84604
C    -1.83971  -3.51435   1.03768
C    -1.20275  -2.23481  -1.60330
C    -2.64101  -1.76379  -1.72579
C    -2.55970  -0.43701  -1.86683
C    -1.07280  -0.10535  -1.83705
O    -0.49467  -1.29235  -2.41333
C    -0.55294  -0.22832  -0.36082
C    -1.28137   0.63559   0.64722
C    -1.12460   0.41796   2.02652
C    -1.71460   1.27262   2.95808
C    -2.47047   2.36957   2.53158
C    -2.62252   2.60463   1.16396
C    -2.02902   1.74737   0.23252
H     2.51055  -1.45655  -3.73376
H     3.83026  -2.25590  -2.80286
H     3.91695  -0.49055  -3.16508
H     2.47357   0.35888   2.08895
H     3.14924   2.49334   3.13191
H     2.49196   4.66590   2.09052
H     1.16572   4.66291  -0.02707
H     0.51309   2.52464  -1.08156
H     2.37867  -1.38988   0.59695
H    -2.52696  -3.60459   1.88885
H    -0.90299  -4.04554   1.27347
H    -2.30341  -3.97853   0.15146
H    -0.97003  -3.26540  -1.88970
H    -3.52321  -2.39617  -1.63696
H    -3.36603   0.29063  -1.93596
H    -0.74622   0.78957  -2.36932
H    -0.52275  -0.41983   2.37280
H    -1.57760   1.08284   4.02537
H    -2.93086   3.03961   3.26149
H    -3.19696   3.46527   0.81353
H    -2.13528   1.98038  -0.82667
