24
Generated by autodE on: 2022-10-26. E = -701.444368 Ha
C     1.20578  -0.05820  -3.11593
O     1.00798  -0.00324  -1.69034
C    -0.13126  -0.50163  -1.23339
O    -1.00932  -0.98346  -1.91636
C    -0.25283  -0.35501   0.25601
N    -0.56472  -1.40878   0.98125
N    -0.58991  -2.71794   0.71753
C    -0.00705  -3.14864  -0.37613
N     0.51311  -3.66448  -1.29708
C    -0.13672   0.96267   0.87968
C     0.18841   1.10248   2.24512
C     0.26106   2.36775   2.82465
C     0.02583   3.51139   2.05433
C    -0.28320   3.38353   0.69587
C    -0.36386   2.12259   0.10940
H     0.41831   0.51145  -3.62895
H     2.18773   0.39109  -3.29907
H     1.18922  -1.10421  -3.45264
H    -0.83568  -1.22318   1.95180
H     0.41891   0.22573   2.85418
H     0.52060   2.46126   3.88125
H     0.09257   4.50173   2.50998
H    -0.46669   4.27261   0.08901
H    -0.62043   2.03970  -0.94831
