27
Generated by autodE on: 2022-10-22. E = -653.259911 Ha
C    -1.86335   2.84574   1.17276
O    -0.80311   1.98114   0.75720
C    -1.12022   0.79410   0.22269
C    -0.28070  -0.14576  -0.28117
C     1.16784  -0.19101  -0.38302
C     1.83004  -1.40129  -0.69002
C     3.22199  -1.45855  -0.78072
C     3.99473  -0.31234  -0.57024
C     3.35449   0.89558  -0.26587
C     1.96536   0.95914  -0.17151
C    -1.23599  -1.33414  -0.56581
C    -1.71252  -1.89714   0.79310
C    -2.52040  -0.95649   1.29182
C    -2.53326   0.15581   0.21609
O    -2.42557  -0.62815  -0.97956
H    -1.38373   3.74154   1.58612
H    -2.47960   2.37145   1.95241
H    -2.49683   3.13148   0.31854
H     1.24990  -2.31142  -0.85373
H     3.70663  -2.40933  -1.01704
H     5.08383  -0.35814  -0.64257
H     3.94564   1.79998  -0.09997
H     1.48228   1.90714   0.06463
H    -0.91281  -2.05609  -1.32268
H    -1.37906  -2.83523   1.23592
H    -3.02961  -0.90415   2.25335
H    -3.39427   0.83074   0.19658
