51
Generated by autodE on: 2022-10-22. E = -1354.699785 Ha. Imaginary frequency = -248.3 cm-1
C     2.77166  -1.21945  -3.37279
O     2.57525  -1.03972  -1.96372
C     1.82785  -0.01090  -1.57538
O     1.46095   0.87272  -2.32625
C     1.58154  -0.05331  -0.10295
C     1.73531   1.18262   0.68044
C     2.24106   1.14553   1.99799
C     2.28773   2.29815   2.77803
C     1.83177   3.51634   2.26367
C     1.35139   3.57147   0.95296
C     1.30735   2.42292   0.16455
N     1.67733  -1.22468   0.56693
N     1.12539  -2.40126   0.19472
C     1.54596  -3.13076  -0.80936
N     1.77942  -3.94896  -1.62226
C    -1.00017  -1.75013  -0.13587
O    -1.45495  -2.19547   1.03596
C    -1.53455  -3.61024   1.22795
C    -1.29505  -2.44027  -1.48698
C    -2.74884  -2.05557  -1.83138
C    -2.69336  -0.75316  -2.13088
C    -1.21138  -0.35913  -1.95457
O    -0.56093  -1.57851  -2.36022
C    -0.91765  -0.37134  -0.43822
C    -1.32429   0.71717   0.43684
C    -1.14084   0.66033   1.83742
C    -1.49776   1.73496   2.64843
C    -2.05918   2.89141   2.09270
C    -2.25145   2.96195   0.71015
C    -1.87888   1.89553  -0.10920
H     1.80070  -1.35748  -3.86868
H     3.38122  -2.12336  -3.47629
H     3.29203  -0.35156  -3.80110
H     2.62925   0.21829   2.42272
H     2.68695   2.24377   3.79304
H     1.86011   4.41833   2.87894
H     0.99241   4.51645   0.53988
H     0.91527   2.47666  -0.84671
H     1.59548  -1.11823   1.57757
H    -1.89385  -3.76252   2.25289
H    -0.53844  -4.06130   1.10766
H    -2.24385  -4.06539   0.51990
H    -1.00018  -3.48778  -1.59527
H    -3.60493  -2.72660  -1.77607
H    -3.49787  -0.06672  -2.39209
H    -0.84342   0.49900  -2.52117
H    -0.69316  -0.22740   2.28313
H    -1.33065   1.67315   3.72649
H    -2.33888   3.73108   2.73296
H    -2.68221   3.86042   0.26163
H    -2.01662   1.98309  -1.18810
