20
Generated by autodE on: 2022-06-25. E = -457.715325 Ha
C     3.09623  -0.71067   0.00158
N     1.82631  -0.01519   0.13303
C     1.77672   1.20587   0.81725
C     0.62644   1.85189   1.06522
C    -0.72212   1.32900   0.63591
C    -0.57249  -0.00830  -0.07106
C    -1.74365  -0.74154  -0.57840
N    -2.94956  -0.15201  -0.37986
O    -1.66677  -1.84396  -1.15822
C     0.65060  -0.57761  -0.26513
H     3.86049  -0.04026  -0.42048
H     3.45914  -1.07966   0.97606
H     2.97402  -1.56723  -0.67326
H     2.74643   1.59594   1.13166
H     0.66998   2.80409   1.59885
H    -1.22628   2.06914  -0.01919
H    -1.39232   1.23906   1.51511
H    -3.05300   0.74845   0.07013
H    -3.78064  -0.62223  -0.72129
H     0.72876  -1.54055  -0.77234
