31
Generated by autodE on: 2022-06-25. E = -651.923404 Ha
C     4.44876  -0.20403   1.19076
N     3.17956   0.40572   0.86192
C     2.43871  -0.04758  -0.19720
O     2.91564  -0.94219  -0.93435
C     1.12668   0.55392  -0.37238
C     0.59778   1.59054   0.56426
N     0.33493   0.15788  -1.42626
C     0.93904  -0.21523  -2.72297
C    -1.00646   0.17788  -1.40117
C    -1.87212  -0.00019  -0.26004
C    -3.24814   0.30340  -0.42372
C    -4.16635   0.06671   0.59408
C    -3.74873  -0.49780   1.80760
C    -2.39973  -0.82476   1.98016
C    -1.46766  -0.56948   0.97392
H     4.88987   0.33030   2.04213
H     4.34588  -1.26975   1.46267
H     5.14975  -0.14808   0.34334
H     2.75113   1.00750   1.55274
H     1.40608   2.26932   0.87849
H     0.12010   1.20021   1.48452
H    -0.16956   2.19549   0.05496
H     0.22459   0.04952  -3.51269
H     1.12888  -1.29417  -2.75735
H     1.87819   0.32589  -2.87045
H    -1.48570   0.25049  -2.37870
H    -3.58419   0.73004  -1.37227
H    -5.21855   0.31998   0.44205
H    -4.46864  -0.68201   2.60821
H    -2.06402  -1.28054   2.91508
H    -0.42615  -0.85316   1.12656
