31
Generated by autodE on: 2022-07-27. E = -651.920936 Ha
C    -0.99994   2.51241   1.37569
N    -0.35799   1.82592   0.27631
C     0.98459   1.60305   0.26936
O     1.69721   2.13315   1.15550
C     1.58029   0.81563  -0.80532
C     3.05170   0.98533  -1.05170
N     0.84327   0.08602  -1.69992
C     1.38568  -0.02016  -3.07206
C    -0.29964  -0.59470  -1.48077
C    -0.83903  -1.11598  -0.24953
C    -0.21635  -1.08733   1.02485
C    -0.79574  -1.73404   2.11650
C    -2.02907  -2.38298   1.99849
C    -2.67249  -2.40178   0.75327
C    -2.08748  -1.78718  -0.34816
H    -0.67223   3.56192   1.45493
H    -2.08551   2.49896   1.21433
H    -0.78371   2.02147   2.33963
H    -0.94810   1.34981  -0.39384
H     3.53939   0.03919  -1.33432
H     3.51969   1.34511  -0.12755
H     3.28398   1.72143  -1.84409
H     0.60493  -0.41127  -3.73273
H     1.71745   0.96376  -3.42370
H     2.23577  -0.71558  -3.08037
H    -0.83132  -0.87120  -2.39046
H     0.73593  -0.57987   1.16563
H    -0.28220  -1.70996   3.08095
H    -2.48869  -2.86048   2.86674
H    -3.63682  -2.90369   0.64184
H    -2.58919  -1.82324  -1.31852
