28
Generated by autodE on: 2022-06-16. E = -687.640895 Ha
C     3.36543   0.77783  -1.18507
C     2.65973  -0.27294  -0.38748
O     2.72345  -1.45935  -0.62684
C     1.73500   0.21307   0.77824
C     2.33604   1.35318   1.47752
N     2.81239   2.24566   2.04578
C     1.35109  -0.93727   1.74018
C     0.02637  -1.43655   1.15146
C    -0.40968  -0.26861   0.29615
C    -1.75096  -0.17734  -0.30780
C    -2.11415   0.94035  -1.08426
C    -3.38188   1.02248  -1.65471
C    -4.30772  -0.01133  -1.46299
C    -3.95707  -1.12637  -0.69726
C    -2.68757  -1.20983  -0.12101
N     0.48537   0.64045   0.10709
H     4.19458   1.18355  -0.58095
H     3.76686   0.34517  -2.11018
H     2.68632   1.61469  -1.40605
H     1.19539  -0.53129   2.74850
H     2.13353  -1.70308   1.78551
H     0.15633  -2.32317   0.51007
H    -0.71903  -1.69184   1.91727
H    -1.38963   1.74165  -1.23199
H    -3.65280   1.89543  -2.25297
H    -5.30177   0.05432  -1.91153
H    -4.67469  -1.93580  -0.54628
H    -2.42657  -2.08622   0.47376
