22
Generated by autodE on: 2022-06-16. E = -608.931501 Ha
C    -4.09621   1.29866  -0.53170
C    -2.60408   1.09369  -0.43062
O    -1.79475   1.98452  -0.71233
C    -2.15585  -0.21320   0.01875
C    -3.00799  -1.27980   0.36208
N    -3.73806  -2.14963   0.64167
N    -0.81724  -0.38372   0.10592
C     0.34355  -0.31630   0.10902
C     1.75289  -0.22021   0.11199
C     2.34153   1.00560  -0.26806
C     3.72894   1.11476  -0.26847
C     4.52399   0.02407   0.10335
C     3.93271  -1.18810   0.47887
C     2.54720  -1.32380   0.48710
H    -4.54116   0.57263  -1.23059
H    -4.57593   1.14408   0.44795
H    -4.29929   2.31846  -0.88287
H     1.70446   1.84393  -0.55378
H     4.19370   2.05842  -0.56088
H     5.61183   0.11940   0.10036
H     4.55685  -2.03600   0.76777
H     2.07312  -2.26238   0.77697
