57
Generated by autodE on: 2022-06-09. E = -1610.869647 Ha
C     0.00573   0.59738   2.19111
N     0.15860   0.36865   0.76694
C     1.27180  -0.51164   0.43856
C     2.62128   0.07054   0.81049
C     2.87671   1.44643   0.71851
C     4.13984   1.95423   1.03088
C     5.16500   1.09248   1.43612
C     4.91664  -0.27997   1.53244
C     3.64991  -0.78513   1.22568
C     1.09584  -0.83407  -1.08041
C     1.58271  -2.25300  -1.39901
F     1.31729  -3.15623  -0.43465
F     1.07930  -2.76199  -2.53231
F     2.92846  -2.24309  -1.54102
C     1.81185   0.20306  -2.04385
C     1.54843  -0.22332  -3.48034
C     0.26287   0.07242  -3.70352
C    -0.22986   0.69730  -2.41109
O     0.94511   1.33034  -1.90689
C    -0.41005  -0.46739  -1.36619
F    -1.17005  -1.45917  -1.95637
C    -1.04066  -0.02543   0.00928
C    -1.96659   1.17155  -0.23713
C    -3.21394   0.95822  -0.84508
C    -4.04177   2.03345  -1.16986
C    -3.63853   3.34286  -0.88260
C    -2.39852   3.56207  -0.27881
C    -1.56461   2.48271   0.03507
C    -1.82471  -1.14376   0.74505
C    -2.75887  -0.75844   1.72529
C    -3.41994  -1.69750   2.51798
C    -3.16649  -3.06184   2.35175
C    -2.24218  -3.46359   1.38687
C    -1.57844  -2.51787   0.59745
H    -0.13674  -0.33735   2.76931
H     0.90290   1.10042   2.57906
H    -0.85258   1.25295   2.38529
H     1.17466  -1.46697   0.98668
H     2.07691   2.11453   0.39765
H     4.32554   3.02862   0.95752
H     6.15279   1.49052   1.68062
H     5.70947  -0.95956   1.85418
H     3.45403  -1.85716   1.30709
H     2.83990   0.44331  -1.76298
H     2.25888  -0.74254  -4.12209
H    -0.35168  -0.13847  -4.57758
H    -1.07096   1.38864  -2.47945
H    -3.53410  -0.05926  -1.07742
H    -5.00651   1.84908  -1.64872
H    -4.28787   4.18572  -1.13096
H    -2.07101   4.57996  -0.05356
H    -0.58670   2.65957   0.48130
H    -2.97652   0.29865   1.87720
H    -4.13792  -1.35783   3.26841
H    -3.68507  -3.80180   2.96593
H    -2.03024  -4.52498   1.23638
H    -0.87931  -2.88675  -0.14398
