41
Generated by autodE on: 2022-07-27. E = -866.783770 Ha
C     0.46804   2.17722   0.24247
N     0.34856   0.73396  -0.02430
C     1.44967  -0.04105  -0.03207
C     2.79262   0.19624   0.42420
C     3.33768   1.36244   1.03119
C     4.67778   1.41331   1.41302
C     5.53466   0.32587   1.21221
C     5.02112  -0.83591   0.61929
C     3.68686  -0.89990   0.23823
C    -0.91472   0.19200  -0.16392
C    -1.93861   0.94189  -0.89061
C    -3.30624   0.84483  -0.53551
C    -4.28600   1.54909  -1.23104
C    -3.93986   2.38107  -2.30483
C    -2.59525   2.48722  -2.67565
C    -1.61189   1.77409  -1.98911
C    -1.17083  -1.18128   0.28942
C    -0.61247  -1.68561   1.49191
C    -0.92639  -2.95739   1.95702
C    -1.80330  -3.78636   1.23903
C    -2.35736  -3.31239   0.04796
C    -2.04451  -2.03392  -0.42194
H    -0.49181   2.66518   0.06589
H     1.23691   2.62687  -0.39711
H     0.73159   2.31755   1.29930
H     1.25960  -1.05112  -0.39274
H     2.72540   2.23928   1.21704
H     5.05819   2.32645   1.87812
H     6.58293   0.38080   1.51362
H     5.66896  -1.70095   0.45601
H     3.30107  -1.81526  -0.21733
H    -3.59388   0.21466   0.30815
H    -5.33180   1.45773  -0.92630
H    -4.70987   2.93456  -2.84709
H    -2.30895   3.11948  -3.52024
H    -0.57305   1.84669  -2.31779
H     0.07374  -1.06255   2.06966
H    -0.48884  -3.30881   2.89513
H    -2.04470  -4.78659   1.60575
H    -3.03488  -3.94529  -0.53124
H    -2.48182  -1.68729  -1.35975
