57
Generated by autodE on: 2022-06-09. E = -1610.779140 Ha. Imaginary frequency = -105.4 cm-1
C     0.18520   2.08046   1.22782
N     0.01848   0.65658   0.88835
C     1.09482  -0.15327   0.96178
C     2.44164   0.16597   1.39946
C     3.13177   1.38196   1.17311
C     4.45657   1.53829   1.58264
C     5.13840   0.49693   2.22047
C     4.47989  -0.72092   2.43279
C     3.16000  -0.88490   2.02391
C     1.21329  -0.70495  -1.54763
C     1.94875  -1.97920  -1.41219
F     1.30266  -2.87532  -0.63374
F     2.13067  -2.59619  -2.61291
F     3.18506  -1.81521  -0.90009
C     1.86351   0.57898  -2.11440
C     1.92133   0.41595  -3.65096
C     0.64871   0.48832  -4.05702
C    -0.17028   0.70854  -2.76396
O     0.75591   1.49289  -1.99548
C    -0.07693  -0.59741  -1.97078
F    -0.91346  -1.60876  -2.21834
C    -1.22540   0.17616   0.51753
C    -2.30430   1.10522   0.13773
C    -3.63702   0.86104   0.55327
C    -4.68389   1.70595   0.18907
C    -4.44555   2.83673  -0.60006
C    -3.13678   3.10563  -1.01282
C    -2.08788   2.25894  -0.65523
C    -1.59817  -1.20917   0.89573
C    -1.17714  -1.78682   2.11482
C    -1.59811  -3.05883   2.49839
C    -2.46105  -3.79821   1.68037
C    -2.90620  -3.23488   0.48123
C    -2.48337  -1.96151   0.09674
H    -0.78143   2.49666   1.52066
H     0.59266   2.65292   0.38809
H     0.86835   2.15152   2.08127
H     0.86114  -1.20964   0.93905
H     2.65100   2.20139   0.64355
H     4.96525   2.48610   1.38978
H     6.17512   0.62823   2.53853
H     5.00141  -1.54863   2.91975
H     2.65792  -1.84240   2.18145
H     2.75824   0.94695  -1.60293
H     2.82590   0.22153  -4.22597
H     0.22387   0.36960  -5.05298
H    -1.15498   1.17658  -2.85514
H    -3.85242  -0.00099   1.18438
H    -5.69622   1.48328   0.53600
H    -5.26635   3.49818  -0.88647
H    -2.92603   3.98231  -1.63065
H    -1.08658   2.49305  -1.00579
H    -0.51603  -1.22901   2.78050
H    -1.25733  -3.47234   3.45100
H    -2.78686  -4.79725   1.97908
H    -3.58816  -3.79202  -0.16615
H    -2.84780  -1.53691  -0.83730
