38
Generated by autodE on: 2022-06-03. E = -2462.528588 Ha
C     3.65261  -2.61729  -0.67435
N     3.01074  -1.50403   0.00359
C     1.82805  -1.04952  -0.39598
O     1.20064  -1.49364  -1.35887
C     1.16639   0.10361   0.40826
Cl    2.32524   0.90661   1.52331
C     0.53576   1.08766  -0.56374
C     1.38755   2.06002  -1.32193
O     2.54519   1.80769  -1.58039
O     0.73275   3.15027  -1.67651
C     1.46273   4.11616  -2.45758
N    -0.71286   0.94135  -0.76387
C    -1.21981  -0.20261  -0.00991
C    -2.63992   0.04580   0.56903
O    -3.15594  -0.79498   1.29922
N    -3.21604   1.18348   0.17668
C    -4.53731   1.56433   0.63891
C    -1.42072  -1.41668  -0.95542
O    -1.58305  -2.54600  -0.56797
O    -1.52557  -1.02016  -2.21547
C    -1.72797  -2.05432  -3.19313
C    -0.14144  -0.39919   1.12662
Cl    0.05980  -2.01044   1.83390
Cl   -0.57511   0.75317   2.45642
H     3.83208  -2.37811  -1.73338
H     3.02239  -3.51844  -0.62512
H     4.61122  -2.82022  -0.18356
H     3.46605  -1.07427   0.80247
H     0.76711   4.94326  -2.63500
H     1.78016   3.66723  -3.40919
H     2.34301   4.46427  -1.89924
H    -2.68849   1.80143  -0.43298
H    -4.85101   2.46983   0.10641
H    -4.53570   1.76820   1.72164
H    -5.26375   0.76168   0.44262
H    -2.65134  -2.61030  -2.97816
H    -1.80452  -1.54202  -4.15852
H    -0.87010  -2.74166  -3.19027
