13
Generated by autodE on: 2022-06-03. E = -1665.618738 Ha
C    -3.83508   0.22192  -0.48823
N    -2.52129  -0.23987  -0.08741
C    -1.37811   0.26753  -0.58407
O    -1.32313   1.18333  -1.40358
C    -0.11508  -0.37477  -0.05297
Cl   -0.17897  -2.09506   0.23637
C     1.03019   0.29610   0.19490
Cl    1.19181   2.00624   0.02138
Cl    2.46284  -0.49061   0.75965
H    -4.37143   0.66881   0.36355
H    -4.43684  -0.61269  -0.87959
H    -3.72220   0.97990  -1.27175
H    -2.46640  -1.00032   0.58260
