25
Generated by autodE on: 2022-06-03. E = -796.835145 Ha
C    -3.85801  -2.48342  -0.32350
N    -3.00013  -1.31939  -0.36077
C    -1.67830  -1.36682  -0.10342
O    -1.05943  -2.40187   0.18618
C    -0.95654  -0.06932  -0.18487
N     0.33570  -0.12788   0.07554
C     1.47700  -0.21974   0.31110
C     2.86441  -0.43588   0.64128
O     3.28575  -1.53860   0.92126
O     3.54959   0.69679   0.58896
C     4.95498   0.61096   0.90412
C    -1.53606   1.22671  -0.51697
O    -2.72147   1.41160  -0.77285
O    -0.62916   2.21445  -0.51465
C    -1.10693   3.52899  -0.82994
H    -4.36510  -2.63073  -1.29032
H    -4.63019  -2.38496   0.45680
H    -3.25135  -3.37016  -0.10579
H    -3.39086  -0.40450  -0.58325
H     5.45889  -0.06387   0.19838
H     5.34091   1.63093   0.80449
H     5.08881   0.24558   1.93174
H    -1.53874   3.55151  -1.84105
H    -0.23142   4.18651  -0.77865
H    -1.86551   3.85040  -0.10157
