25
Generated by autodE on: 2022-07-27. E = -796.835205 Ha
C    -3.27856   0.23752   3.10841
N    -2.54078  -0.29828   1.98548
C    -1.42206   0.27008   1.49467
O    -0.90654   1.30387   1.94631
C    -0.80113  -0.42406   0.33500
N     0.29278   0.14019  -0.13943
C     1.25636   0.68671  -0.51358
C     2.45854   1.24570  -1.08174
O     3.01334   0.72492  -2.02692
O     2.82545   2.34492  -0.44050
C     4.02066   2.99661  -0.91812
C    -1.28225  -1.64190  -0.30634
O    -2.28137  -2.26195   0.04273
O    -0.51010  -2.02411  -1.33401
C    -0.90305  -3.21576  -2.02808
H    -2.78334   1.14885   3.46323
H    -3.32000  -0.48685   3.93780
H    -4.31233   0.48740   2.82025
H    -2.86284  -1.14770   1.52265
H     4.15900   3.86816  -0.26969
H     4.87896   2.31513  -0.83839
H     3.88719   3.30942  -1.96300
H    -0.89898  -4.07939  -1.34728
H    -1.90643  -3.09770  -2.46234
H    -0.16164  -3.35767  -2.82285
