38
Generated by autodE on: 2022-06-03. E = -2462.444710 Ha. Imaginary frequency = -389.7 cm-1
C     4.79538  -0.18366   0.33369
N     3.44893  -0.05700   0.86251
C     2.38014  -0.22715   0.07706
O     2.45147  -0.59717  -1.09664
C     1.02663   0.06616   0.72420
Cl    1.02146   1.39239   1.89190
C     0.30935   1.04920  -1.05631
C     1.29858   1.84424  -1.83139
O     1.36768   1.79323  -3.03607
O     2.08348   2.51976  -1.01623
C     3.19014   3.22480  -1.61223
N    -0.84286   0.72201  -1.16175
C    -1.81782   0.05393  -0.55899
C    -2.55917   0.81413   0.49469
O    -2.21237   1.96120   0.79613
N    -3.56861   0.15782   1.09061
C    -4.23332   0.70934   2.25223
C    -2.25519  -1.22334  -1.14022
O    -3.09446  -1.95348  -0.63203
O    -1.58748  -1.52779  -2.25224
C    -1.85596  -2.81012  -2.83929
C     0.10856  -0.96536   0.96218
Cl    0.32553  -2.49935   0.15910
Cl   -0.83383  -1.06897   2.41753
H     4.98211   0.57172  -0.44714
H     4.95260  -1.17976  -0.10504
H     5.50974  -0.03672   1.15206
H     3.31935   0.29996   1.80368
H     3.73409   3.67885  -0.77754
H     3.83014   2.51386  -2.15310
H     2.82010   3.99726  -2.30021
H    -3.71988  -0.81275   0.81886
H    -4.61103   1.72134   2.04350
H    -3.54933   0.77401   3.11567
H    -5.07855   0.06292   2.51860
H    -1.64567  -3.61296  -2.11876
H    -2.90500  -2.87107  -3.16231
H    -1.18648  -2.88845  -3.70311
