45
Generated by autodE on: 2022-06-04. E = -1420.105519 Ha
C     4.45339   0.01294   2.22846
N     3.35442   0.16750   1.29719
C     2.45580  -0.82391   1.11713
O     2.54646  -1.94870   1.61702
N     1.39478  -0.50143   0.27593
N     1.43574   0.62621  -0.54619
C     2.04566   0.37288  -1.85868
C     0.07880   1.15593  -0.47151
C    -0.24119   2.00879  -1.62523
N    -0.46674   2.74551  -2.48982
C     0.01934   2.14060   0.74830
O     0.93624   2.30552   1.51302
O    -1.12782   2.79151   0.77433
C    -1.32593   3.73219   1.84904
C    -0.88311  -0.14088  -0.30009
C    -1.61547  -0.43294  -1.62064
F    -0.80499  -0.32565  -2.69289
F    -2.62756   0.42903  -1.79380
F    -2.12474  -1.67217  -1.67839
C    -1.84898  -0.08105   0.92940
C    -2.76975  -1.31900   0.99177
C    -1.77353  -2.48323   1.24832
C    -0.43768  -1.75277   1.50833
C    -0.90183  -0.41809   2.10204
C     0.15793  -1.27045   0.14689
C     0.37544  -2.38987  -0.78686
N     0.62206  -3.29150  -1.47389
H     4.94388  -0.95834   2.07606
H     5.18843   0.80824   2.04911
H     4.12458   0.06917   3.28077
H     3.05883   1.09880   1.01655
H     2.09407   1.31516  -2.41886
H     1.51976  -0.38374  -2.46044
H     3.07429   0.03571  -1.67743
H    -0.54885   4.50771   1.81505
H    -2.31657   4.16804   1.68276
H    -1.29066   3.20561   2.81267
H    -2.38730   0.86828   0.97535
H    -3.41220  -1.46151   0.11776
H    -3.43285  -1.17895   1.85675
H    -1.71149  -3.18975   0.40874
H    -2.04880  -3.06302   2.13949
H     0.29661  -2.32611   2.07762
H    -1.45913  -0.55216   3.03866
H    -0.08318   0.28239   2.28925
