24
Generated by autodE on: 2022-07-27. E = -717.729508 Ha
C     3.04191  -0.32158   1.94231
N     1.83211  -1.11963   2.02622
C     0.93605  -1.25544   1.03329
O    -0.17922  -1.76428   1.16892
N     1.46811  -0.94456  -0.24202
N     0.69108  -0.49359  -1.15562
C     1.14918  -0.75450  -2.53998
C    -0.47421   0.18484  -0.99019
C    -1.31588   0.35891  -2.11345
N    -2.02377   0.50375  -3.02876
C    -0.79679   0.89900   0.25549
O    -0.00342   1.13532   1.14850
O    -2.06355   1.31906   0.25292
C    -2.47714   2.12930   1.36473
H     3.66697  -0.53432   2.81880
H     2.81825   0.75794   1.91858
H     3.60904  -0.57573   1.03675
H     1.47441  -1.35187   2.94873
H     2.16018  -1.16379  -2.47131
H     1.13468   0.17767  -3.11632
H     0.47336  -1.49162  -2.99480
H    -3.53321   2.36180   1.18823
H    -1.88371   3.05388   1.40551
H    -2.35926   1.57336   2.30560
