24
Generated by autodE on: 2022-06-04. E = -717.732154 Ha
C     3.06859   2.53548   0.22561
N     2.64805   1.21124   0.63168
C     1.73288   0.51440  -0.06036
O     1.19281   0.91622  -1.09452
N     1.57892  -0.79189   0.45698
N     0.50090  -1.44583   0.20083
C     0.65463  -2.91838   0.24387
C    -0.72289  -0.94467  -0.09475
C    -1.70103  -1.82286  -0.61735
N    -2.51722  -2.53168  -1.05483
C    -1.12969   0.42430   0.27782
O    -0.57258   1.11169   1.11196
O    -2.24195   0.78241  -0.36601
C    -2.81108   2.05333  -0.01235
H     2.19605   3.13241  -0.07585
H     3.77174   2.50282  -0.62401
H     3.56386   3.02884   1.07102
H     3.10442   0.75092   1.41299
H    -0.13265  -3.35557   0.86871
H     0.58249  -3.30388  -0.78223
H     1.64677  -3.12482   0.65311
H    -3.08706   2.06627   1.05172
H    -2.09372   2.86052  -0.21748
H    -3.70268   2.16622  -0.63904
