45
Generated by autodE on: 2022-06-04. E = -1420.057320 Ha. Imaginary frequency = -278.9 cm-1
C     4.99424  -0.42901   1.58540
N     3.74280   0.04552   1.02341
C     2.66885  -0.76905   0.94098
O     2.67909  -1.95547   1.26481
N     1.46858  -0.14078   0.55106
N     1.44526   0.70497  -0.45206
C     2.20745   0.47065  -1.69723
C     0.32561   1.48716  -0.46957
C     0.00677   2.16403  -1.68658
N    -0.26130   2.73925  -2.66056
C    -0.06241   2.22862   0.77730
O     0.63809   2.33960   1.75848
O    -1.25526   2.79236   0.62718
C    -1.74856   3.57534   1.72840
C    -1.14391  -0.42315  -0.17987
C    -1.69946  -0.42889  -1.57148
F    -0.74192  -0.41404  -2.52471
F    -2.43889  -1.53671  -1.82932
F    -2.50737   0.62251  -1.78935
C    -2.08506  -0.24268   1.01236
C    -2.92790  -1.55363   1.13264
C    -1.85810  -2.62091   1.49947
C    -0.55902  -1.77740   1.66607
C    -1.12223  -0.45275   2.20044
C    -0.15630  -1.35540   0.24661
C     0.43025  -2.31245  -0.64452
N     0.89528  -3.10939  -1.35269
H     5.76227   0.33825   1.42809
H     4.90872  -0.62969   2.66650
H     5.31133  -1.35624   1.08720
H     3.61166   1.04353   0.89031
H     2.61607   1.42382  -2.05353
H     1.54494   0.03630  -2.45707
H     3.02203  -0.22645  -1.48576
H    -2.72523   3.95469   1.40928
H    -1.06248   4.40712   1.94000
H    -1.85490   2.94314   2.62092
H    -2.67534   0.67934   0.98960
H    -3.65264  -1.42006   1.94869
H    -3.48810  -1.79281   0.22199
H    -1.74639  -3.39733   0.72857
H    -2.09327  -3.12296   2.44845
H     0.24740  -2.25802   2.22758
H    -0.35844   0.31650   2.32891
H    -1.66670  -0.58476   3.14567
