45
Generated by autodE on: 2022-06-04. E = -3791.034875 Ha
C     5.76921   1.12327   0.33064
N     4.54735   0.37287   0.11872
C     3.43464   0.53488   0.85982
O     3.35092   1.30686   1.82629
C     2.24752  -0.26588   0.48578
C     1.71926  -0.66462  -0.68524
Br    2.34452  -0.46400  -2.44150
C     0.30882  -1.15942  -0.37535
O     0.48786  -1.68767   0.93781
C     1.12555  -0.53020   1.49409
C     0.07280   0.59080   1.24968
C    -0.53008   0.13164  -0.11534
C    -2.03583  -0.10487   0.16543
C    -2.56403  -1.33713  -0.59423
O    -2.84878  -1.24403  -1.79263
N    -2.64259  -2.45636   0.12965
C    -2.98014  -3.74305  -0.44425
C    -2.86447   1.09231  -0.35356
O    -2.49006   1.91288  -1.16053
O    -4.06365   1.10498   0.22443
C    -4.93413   2.20071  -0.10154
N    -2.11221  -0.26676   1.61152
C    -1.12691   0.61715   2.24004
C    -0.81815   0.18559   3.67397
C    -1.64642   2.01274   2.27380
N    -2.10060   3.08119   2.27592
H     5.65668   1.73664   1.23181
H     5.98107   1.78432  -0.52494
H     6.62366   0.44300   0.46493
H     4.52622  -0.29533  -0.64395
H    -0.11250  -1.89612  -1.06603
H     1.44258  -0.69430   2.52687
H     0.56603   1.56709   1.21590
H    -0.41480   0.85556  -0.92676
H    -2.29265  -2.39241   1.08306
H    -2.09952  -4.22788  -0.89851
H    -3.37698  -4.39996   0.34053
H    -3.74266  -3.61359  -1.22386
H    -5.86314   2.02252   0.45138
H    -5.12949   2.22542  -1.18273
H    -4.47563   3.14828   0.21578
H    -3.05585  -0.12710   1.97263
H    -0.02389   0.81220   4.10441
H    -1.71911   0.28044   4.29741
H    -0.49935  -0.86466   3.67981
