25
Generated by autodE on: 2022-07-27. E = -701.723070 Ha
C    -0.33729  -3.23484  -2.75713
N    -0.34841  -1.96330  -2.06764
C     0.09894  -1.79429  -0.81297
O     0.58094  -2.71715  -0.11878
C     0.01452  -0.43653  -0.22642
N     0.54123  -0.43295   1.02949
C     0.88320   0.41769   1.97821
C     1.41987  -0.10934   3.27706
C     0.86044   1.83183   1.83593
N     0.97198   2.99225   1.86222
C    -0.68893   0.66417  -0.84272
O    -1.05407   0.69651  -2.01872
O    -0.96189   1.65364   0.01722
C    -1.57528   2.83860  -0.49722
H     0.06638  -4.00466  -2.08940
H    -1.35525  -3.52807  -3.05970
H     0.28911  -3.18960  -3.66261
H    -0.71512  -1.13113  -2.52941
H     0.77487  -1.42497   1.24416
H     2.41269   0.31765   3.49028
H     0.75300   0.17066   4.10910
H     1.49879  -1.20516   3.24538
H    -1.63510   3.53597   0.34636
H    -2.58201   2.61766  -0.88056
H    -0.96411   3.27242  -1.30203
