25
Generated by autodE on: 2022-06-04. E = -701.724125 Ha
C    -2.99968  -2.91347  -0.79188
N    -2.19961  -1.84256  -0.23635
C    -1.03550  -1.47394  -0.79063
O    -0.56619  -2.03502  -1.80629
C    -0.28084  -0.36197  -0.17103
N     0.88555  -0.15387  -0.84218
C     2.00317   0.54026  -0.74553
C     3.02881   0.42329  -1.83533
C     2.36257   1.34824   0.36742
N     2.84398   1.99103   1.21287
C    -0.80487   0.46992   0.88653
O    -1.80333   0.20811   1.55824
O    -0.11506   1.60644   1.04419
C    -0.48688   2.47191   2.12000
H    -3.31600  -2.68936  -1.82358
H    -2.44209  -3.86374  -0.81123
H    -3.89473  -3.04458  -0.17166
H    -2.50221  -1.32661   0.58859
H     0.86209  -0.80029  -1.65834
H     2.69620  -0.29393  -2.59888
H     3.99596   0.09127  -1.42545
H     3.19079   1.40115  -2.31773
H    -1.50105   2.86773   1.96472
H    -0.44625   1.93592   3.07938
H     0.24434   3.28864   2.11424
