20
Generated by autodE on: 2022-06-04. E = -3089.224508 Ha
C     3.61632   1.20982   0.76921
N     2.38381   0.51451   0.45300
C     1.64248   0.84774  -0.62065
O     1.97839   1.74078  -1.41349
C     0.38286   0.11447  -0.84929
C    -0.53066  -0.47163  -0.05788
Br   -0.56690  -0.72907   1.79574
C    -1.75389  -0.76806  -0.96334
C    -2.37441   0.60405  -1.31669
C    -1.47582   1.18377  -2.11730
C    -0.32461   0.16047  -2.23066
O    -1.06270  -1.07476  -2.17955
H     4.34525   1.12059  -0.05180
H     4.04841   0.76940   1.67563
H     3.43554   2.28196   0.94593
H     2.07335  -0.23547   1.05986
H    -2.42397  -1.57086  -0.63906
H    -3.31533   0.98426  -0.92150
H    -1.47333   2.17630  -2.56568
H     0.33390   0.22306  -3.10217
