45
Generated by autodE on: 2022-06-04. E = -3790.950505 Ha. Imaginary frequency = -317.1 cm-1
C     5.96958   0.81728   0.18147
N     4.68641   0.17465  -0.02742
C     3.60220   0.51329   0.69515
O     3.63795   1.36758   1.59436
C     2.32580  -0.16311   0.39312
C     1.76638  -0.68401  -0.71310
Br    2.43645  -0.89095  -2.44985
C     0.28239  -0.94172  -0.36471
O     0.42260  -1.29555   1.01453
C     1.14782  -0.11376   1.39739
C     0.18402   0.97937   0.90374
C    -0.37420   0.45313  -0.24498
C    -2.57519  -0.16803   0.43501
C    -2.68658  -1.54321  -0.13392
O    -2.41245  -2.52300   0.58199
N    -3.04026  -1.65568  -1.42284
C    -3.05532  -2.93874  -2.09512
C    -3.26769   0.95898  -0.20030
O    -3.37771   1.10544  -1.41242
O    -3.79393   1.80489   0.68342
C    -4.34323   3.03110   0.18386
N    -2.25228  -0.19730   1.75852
C    -1.59233   0.70771   2.50665
C    -1.01302   0.23843   3.81334
C    -1.80993   2.11676   2.41426
N    -1.87611   3.27960   2.45762
H     6.32725   0.66562   1.21221
H     5.90578   1.90210   0.00157
H     6.69880   0.38481  -0.51384
H     4.60580  -0.54141  -0.74023
H    -0.22154  -1.71601  -0.94989
H     1.42886  -0.12014   2.45392
H     0.32887   2.03386   1.12742
H    -0.76275   0.99937  -1.10210
H    -3.19242  -0.79315  -1.94234
H    -3.69077  -3.65864  -1.55752
H    -3.45371  -2.80276  -3.10793
H    -2.04262  -3.36954  -2.16884
H    -4.67038   3.59413   1.06490
H    -5.19620   2.82700  -0.47847
H    -3.57572   3.59658  -0.36389
H    -2.05995  -1.17254   2.02653
H    -0.15983   0.87083   4.09392
H    -1.76000   0.30090   4.62264
H    -0.67134  -0.80257   3.72567
