44
Generated by autodE on: 2022-05-31. E = -1215.316163 Ha
C     4.04078  -0.52374   1.60636
O     2.95728  -0.35487   0.67871
C     2.87995   0.81050   0.04204
O     3.66641   1.72066   0.19265
C     1.67747   0.87299  -0.91280
O     1.79687  -0.08702  -1.96097
N     0.73343  -1.06686  -1.85412
C     1.38348  -2.35367  -1.58028
C    -0.13928  -0.57249  -0.85427
C     0.35408   0.53674  -0.27039
C    -0.13883   1.37019   0.88113
F     0.60095   2.54028   0.87185
F    -1.44365   1.77665   0.68687
C    -0.01334   0.76997   2.26934
C    -0.86782  -0.46589   2.56948
C    -0.45645  -1.76844   1.85240
C    -1.30694  -2.23683   0.66597
C    -1.43715  -1.31923  -0.58038
C    -1.89982  -2.18094  -1.78775
C    -2.61127  -0.33238  -0.43313
O    -3.47172  -0.39854   0.41934
O    -2.64932   0.53742  -1.44236
C    -3.72674   1.48286  -1.44694
H     3.92633  -1.53050   2.02322
H     5.00526  -0.43112   1.08722
H     3.97699   0.23018   2.40376
H     1.69540   1.87973  -1.35879
H     2.06322  -2.57632  -2.41301
H     0.62970  -3.14650  -1.53541
H     1.95047  -2.33146  -0.63681
H    -0.28094   1.58253   2.96373
H     1.05190   0.54124   2.42741
H    -1.92803  -0.23904   2.38283
H    -0.78452  -0.62550   3.65501
H     0.59955  -1.69985   1.54654
H    -0.49627  -2.59117   2.58382
H    -2.32994  -2.45900   1.00380
H    -0.88075  -3.18906   0.31673
H    -2.89826  -2.58657  -1.56689
H    -1.96009  -1.58536  -2.70663
H    -1.23128  -3.03218  -1.95678
H    -3.69984   2.09486  -0.53455
H    -4.69406   0.96460  -1.51451
H    -3.57139   2.11256  -2.33052
