29
Generated by autodE on: 2022-05-31. E = -778.038971 Ha
C     0.63201  -3.05425  -3.22588
O     1.07203  -1.82723  -2.62242
C     0.64535  -1.57515  -1.38641
O    -0.07305  -2.32573  -0.75909
C     1.13753  -0.21048  -0.88903
C     2.63606  -0.01971  -1.17913
C     0.80761  -0.06718   0.52475
C     0.27362   0.26079   1.56204
C    -0.76738   0.99123   2.28711
F    -0.24730   2.16823   2.77976
F    -1.21668   0.30585   3.38682
C    -1.93406   1.29138   1.35352
C    -1.55806   1.94323   0.00917
C    -1.19222   1.02052  -1.18792
C     0.29017   0.90776  -1.59858
H    -0.46482  -3.07182  -3.29886
H     0.97476  -3.91526  -2.63462
H     1.08060  -3.07591  -4.22549
H     3.22891  -0.83209  -0.73395
H     2.97367   0.93625  -0.75427
H     2.81247  -0.00569  -2.26272
H    -2.60780   1.95278   1.92171
H    -2.46539   0.34143   1.18767
H    -0.75663   2.68258   0.17584
H    -2.43779   2.53092  -0.29243
H    -1.71652   1.42001  -2.06923
H    -1.61647   0.01455  -1.02918
H     0.36277   0.71351  -2.67926
H     0.80339   1.86389  -1.41032
