15
Generated by autodE on: 2022-05-31. E = -437.142797 Ha
C    -3.15945   0.14604   0.40258
N    -2.36576   0.63100  -0.68463
O    -1.08750   0.39435  -0.50916
C    -0.49860  -0.20115   0.49240
C     0.94736  -0.33498   0.43272
O     1.58937  -0.87680   1.32109
O     1.49648   0.18596  -0.67540
C     2.92111   0.07940  -0.78989
H    -3.04907  -0.94915   0.54354
H    -2.88023   0.61917   1.36687
H    -4.20650   0.37780   0.17673
H    -1.05000  -0.58730   1.34623
H     3.23183  -0.97575  -0.79894
H     3.18388   0.55812  -1.74046
H     3.41757   0.59703   0.04410
