42
Generated by autodE on: 2022-05-30. E = -1181.818682 Ha. Imaginary frequency = -371.1 cm-1
C     3.51462   2.67177  -0.64098
O     2.87479   1.60492   0.07092
C     2.46804   0.55713  -0.65931
O     2.66429   0.45970  -1.85850
C     1.80514  -0.46321   0.16133
C     1.46501  -1.70209  -0.23136
C     0.84278  -2.35367   0.99991
O     1.64961  -1.74563   2.04285
C     1.37682  -0.37928   1.62975
C    -0.17450  -0.38767   1.70460
C    -0.51538  -1.67030   1.29352
C    -1.64187  -1.21670  -0.86771
C    -0.99187  -1.97037  -1.88714
N    -0.48930  -2.61397  -2.71992
C    -2.96300  -1.75301  -0.45906
C    -3.11565  -3.25382  -0.49238
O    -3.89927  -1.02192  -0.16105
N    -1.28978   0.11232  -0.81079
C    -1.31764   0.91983   0.27721
C    -2.50178   1.07505   1.18919
C    -0.44330   2.11706   0.06053
O     0.20091   2.29345  -0.96061
O    -0.42038   2.93164   1.10728
C     0.44710   4.07542   1.03700
H     3.80146   3.41249   0.11399
H     2.81680   3.11672  -1.36423
H     4.40579   2.30299  -1.16869
H     1.58266  -2.15392  -1.21224
H     0.85403  -3.44663   1.05060
H     1.88818   0.35207   2.26116
H    -0.67840   0.15797   2.49876
H    -1.39141  -2.23593   1.60083
H    -3.95847  -3.53937   0.15073
H    -2.20207  -3.78035  -0.18344
H    -3.34888  -3.56282  -1.52543
H    -0.53348   0.37656  -1.44950
H    -2.23084   1.73836   2.01773
H    -2.84912   0.12315   1.59545
H    -3.33190   1.53593   0.63017
H     1.49475   3.75140   1.09824
H     0.27975   4.62956   0.10358
H     0.19274   4.69654   1.90306
