27
Generated by autodE on: 2022-07-27. E = -815.105669 Ha
C    -3.93599  -1.23726  -2.09973
N    -2.99771  -1.12189  -1.00278
C    -1.85904  -0.42788  -1.07576
O    -1.47634   0.21242  -2.07020
C    -0.97591  -0.43246   0.14432
N     0.18103   0.15521  -0.13109
C     1.38263   0.26932   0.45971
C     1.77728  -0.49774   1.57627
N     2.13813  -1.15958   2.46553
C     2.40418   1.11109  -0.18165
O     3.53284   1.24519   0.25471
O     1.94443   1.69837  -1.29074
C     2.86695   2.51801  -2.02570
C    -1.43160  -0.86757   1.47930
C    -0.94867  -0.14205   2.70663
O    -2.30802  -1.72778   1.57556
H    -4.95284  -0.99113  -1.75910
H    -3.94559  -2.26213  -2.50442
H    -3.64902  -0.54457  -2.89906
H    -3.15363  -1.64163  -0.13804
H     0.13335   0.57846  -1.08341
H     3.21545   3.35184  -1.39992
H     2.30869   2.89633  -2.88918
H     3.72751   1.92007  -2.35785
H    -1.84056   0.09535   3.30587
H    -0.39663   0.78142   2.48879
H    -0.30826  -0.80382   3.30977
