27
Generated by autodE on: 2022-06-01. E = -815.110629 Ha
C    -3.43554   1.52007   0.68036
N    -2.33598   0.59697   0.89172
C    -2.03561  -0.35382  -0.00595
O    -2.74178  -0.64274  -0.97519
C    -0.76290  -1.10924   0.24401
N     0.43143  -0.56945   0.11854
C     0.91512   0.64627  -0.21003
C     0.09851   1.73962  -0.56331
N    -0.54815   2.66007  -0.87328
C     2.37773   0.73146  -0.22648
O     3.09906  -0.21576   0.04848
O     2.81457   1.94172  -0.57425
C     4.23772   2.12356  -0.63164
C    -0.74144  -2.55694   0.56306
C    -2.05412  -3.26141   0.70583
O     0.34391  -3.11494   0.70776
H    -3.62021   2.07457   1.60825
H    -3.19940   2.23529  -0.12506
H    -4.34455   0.96916   0.40276
H    -1.65650   0.80768   1.61807
H     1.18981  -1.25946   0.29662
H     4.68786   1.93932   0.35437
H     4.68110   1.44260  -1.37225
H     4.39450   3.16562  -0.93209
H    -1.88748  -4.30640   0.99429
H    -2.60704  -3.21161  -0.24467
H    -2.67255  -2.75268   1.46329
