15
Generated by autodE on: 2022-06-01. E = -400.824241 Ha
N     4.64843  -0.74170  -0.29689
C     3.49619  -0.55796  -0.22386
C     2.14777  -0.34298  -0.13815
C     0.94359  -0.15075  -0.06093
C    -0.45695   0.07263   0.02856
C    -1.02706   1.22861  -0.54731
C    -2.40050   1.44109  -0.45443
C    -3.21363   0.51330   0.20663
C    -2.65264  -0.63425   0.77877
C    -1.28090  -0.86073   0.69425
H    -0.38542   1.94679  -1.06036
H    -2.84046   2.33566  -0.90007
H    -4.28999   0.68566   0.27632
H    -3.28905  -1.35693   1.29373
H    -0.83482  -1.75243   1.13751
