37
Generated by autodE on: 2022-05-30. E = -1600.959283 Ha
C    -4.15823  -2.80184   0.41183
O    -3.24916  -1.70125   0.59946
C    -2.06413  -1.79134   0.01186
O    -1.69549  -2.72052  -0.66683
C    -1.21814  -0.54222   0.33866
C    -2.03381   0.67369  -0.13532
O    -2.43576   0.76841  -1.27660
O    -2.23990   1.55665   0.82031
C    -2.91227   2.77569   0.45996
O    -1.03528  -0.54805   1.74629
C     0.25416  -0.04370   2.11111
C     0.74102  -0.82587   3.32731
C     0.12724   1.38646   2.49465
N     0.05828   2.48464   2.86032
C     1.15891  -0.24114   0.86390
C     1.84102   1.02474   0.27040
O     0.78549   1.60503  -0.50652
C     0.54142   0.46997  -1.34383
C     1.95009   0.15532  -1.83182
Cl    2.30110  -0.63923  -3.29748
C     2.78262   0.51445  -0.83255
C     4.17502   0.31913  -0.72572
N     5.32519   0.16842  -0.62107
C     0.19288  -0.62134  -0.29223
H    -5.06663  -2.53728   0.96393
H    -3.71968  -3.72611   0.81320
H    -4.38031  -2.92874  -0.65697
H    -2.35188   3.28991  -0.33327
H    -3.93313   2.55844   0.11633
H    -2.93241   3.38366   1.37092
H     1.72459  -0.45242   3.64591
H     0.82753  -1.88570   3.04925
H     0.02900  -0.72212   4.15789
H     1.89365  -1.02369   1.07735
H     2.26710   1.73899   0.98050
H    -0.20676   0.67090  -2.11321
H     0.35352  -1.63169  -0.68003
