14
Generated by autodE on: 2022-05-30. E = -859.428385 Ha
N     3.03830  -1.17033   0.40270
C     1.92687  -0.81768   0.40692
C     0.58216  -0.40798   0.42919
C    -0.00142   0.64588  -0.17684
Cl    0.68360   1.83758  -1.18224
C    -1.51417   0.51714   0.11972
C    -2.01018  -0.70490  -0.68386
C    -1.45423  -1.75786  -0.07853
C    -0.62286  -1.16327   1.07766
O    -1.43619  -0.03693   1.44001
H    -2.09563   1.44296   0.07454
H    -2.62941  -0.65289  -1.57800
H    -1.49555  -2.81522  -0.33610
H    -0.38215  -1.80509   1.93020
