65
Generated by autodE on: 2022-06-11. E = -1513.469294 Ha
C     1.82505   0.36484  -4.16503
N     1.90978   0.13590  -2.73653
C     1.13632   0.75407  -1.83338
O     0.33714   1.65102  -2.14514
C     1.22691   0.20019  -0.37767
C     2.68248  -0.08904  -0.03167
C     3.62919   0.94213  -0.14655
C     4.96516   0.72232   0.18655
C     5.37850  -0.53908   0.63406
C     4.44445  -1.57073   0.74344
C     3.10209  -1.34655   0.41295
N     0.39382  -0.99105  -0.26562
C    -1.00713  -0.64042  -0.11992
C    -1.69012  -0.44200  -1.50436
O    -2.71336   0.17180  -1.71774
O    -1.04868  -1.12365  -2.45435
C    -1.56774  -1.02553  -3.78806
C    -1.79763  -1.78965   0.53006
C    -1.13867  -2.93813   0.98595
C    -1.85434  -3.97734   1.58950
C    -3.23906  -3.88278   1.74452
C    -3.90429  -2.74023   1.28712
C    -3.19149  -1.70463   0.68052
C    -0.95082   0.68942   0.76593
C    -2.05944   1.68005   0.37897
O    -3.18283   1.59896   0.89582
N    -1.74203   2.64525  -0.50155
C    -2.77911   3.48154  -1.07004
C    -1.03608   0.40500   2.30240
C    -1.03252   1.74917   3.06870
C     0.41123   2.28074   2.84641
C     1.08104   1.13397   2.06103
C     0.37533  -0.10387   2.64095
C     0.54564   1.18415   0.61220
H     1.27315   1.29437  -4.34698
H     1.30262  -0.46185  -4.67277
H     2.83332   0.45689  -4.59436
H     2.53578  -0.59103  -2.40286
H     3.31269   1.92881  -0.49482
H     5.68834   1.53642   0.09682
H     6.42544  -0.71383   0.89315
H     4.75732  -2.55908   1.08887
H     2.37389  -2.15193   0.50752
H     0.55460  -1.67901  -0.99702
H    -2.61154  -1.36821  -3.82023
H    -0.93449  -1.67058  -4.40698
H    -1.50848   0.01555  -4.13547
H    -0.05792  -3.01470   0.87457
H    -1.32184  -4.86481   1.94006
H    -3.79800  -4.69368   2.21752
H    -4.98715  -2.65231   1.40366
H    -3.71871  -0.81481   0.33942
H    -0.90534   2.47538  -1.06926
H    -3.48440   2.89212  -1.68201
H    -3.35514   3.97964  -0.27719
H    -2.31651   4.24884  -1.70432
H    -1.87359  -0.24610   2.57091
H    -1.80988   2.44549   2.73418
H    -1.21797   1.54629   4.13410
H     0.93089   2.45141   3.80102
H     0.43189   3.22599   2.28319
H     2.17482   1.14618   2.11880
H     0.64873  -1.03918   2.14275
H     0.52621  -0.21032   3.72645
H     0.62245   2.20231   0.22187
