24
Generated by autodE on: 2022-06-11. E = -480.984076 Ha
C     3.72240  -0.25035  -0.77930
N     2.39329   0.27095  -0.54301
C     1.40208  -0.43764   0.04382
O     1.56036  -1.59042   0.48086
C     0.08563   0.22866   0.14914
C    -0.45787   1.17279  -0.64912
C    -1.91766   1.30313  -0.26764
C    -2.60019  -0.01420  -0.77634
C    -1.98116  -1.10530   0.14312
C    -1.02130  -0.28214   1.06075
C    -1.84120   1.01073   1.24728
H     3.78784  -1.25588  -0.34734
H     4.48763   0.38736  -0.30927
H     3.94306  -0.31491  -1.85742
H     2.18675   1.21692  -0.84557
H     0.00638   1.65056  -1.51495
H    -2.42111   2.22423  -0.58739
H    -2.40524  -0.18701  -1.84443
H    -3.68991   0.05565  -0.64043
H    -1.43416  -1.88198  -0.40986
H    -2.75316  -1.60177   0.75002
H    -0.68393  -0.81176   1.95966
H    -1.29900   1.78724   1.80739
H    -2.82708   0.83964   1.70669
