24
Generated by autodE on: 2022-10-13. E = -609.401757 Ha
C     0.44848   0.36018   2.85258
O     0.03463  -0.28688   1.63931
C     0.97929  -0.50371   0.73088
O     2.16861  -0.36834   0.93025
C     0.44688  -1.09877  -0.54136
C     1.25251  -2.19925  -1.14764
N    -0.68101  -0.70559  -1.07890
C    -1.21141  -1.41540  -2.25640
N    -1.46499   0.34502  -0.70417
C    -0.82298   1.48470  -0.37293
C    -1.74693   2.60671   0.02878
O     0.41362   1.66765  -0.37632
H    -0.46196   0.49323   3.44748
H     0.89866   1.33532   2.61890
H     1.17290  -0.26346   3.39543
H     2.24337  -2.22389  -0.68024
H     0.76373  -3.17471  -0.97929
H     1.37033  -2.06691  -2.23294
H    -2.25786  -1.11799  -2.36266
H    -1.13178  -2.50017  -2.12341
H    -0.64540  -1.10881  -3.14799
H    -2.79835   2.37956  -0.18787
H    -1.63031   2.77626   1.11262
H    -1.44510   3.53382  -0.48191
