37
Generated by autodE on: 2022-10-06. E = -854.662075 Ha. Imaginary frequency = -248.9 cm-1
C    -3.45431  -0.33121  -0.40370
N    -2.42028  -1.27037   0.01210
C    -1.29449  -0.75299   0.74221
N    -1.57728  -0.01483   1.92584
N    -0.41123  -1.79281   1.00812
C     1.45128  -0.68161  -0.85782
C     2.29265  -1.51951  -1.73964
C     2.02834  -0.30513   0.49759
O     2.73961  -1.08511   1.08915
O     1.72123   0.91075   0.89348
C     2.17979   1.30706   2.20179
N     0.25698  -0.31231  -1.23046
C    -0.31153  -0.74015  -2.52194
N    -0.59734   0.28729  -0.33491
C    -0.82012   1.63958  -0.45061
C    -0.01214   2.38519  -1.48452
O    -1.64185   2.21401   0.26186
H    -4.29858  -0.90815  -0.80599
H    -3.84214   0.31106   0.40772
H    -3.08839   0.32004  -1.20966
H    -2.82840  -1.99890   0.59747
H    -0.70158   0.22634   2.39557
H    -2.01081   0.87351   1.66933
H    -0.27816  -2.52429   0.32128
H     0.23595  -1.72587   1.78331
H     1.74866  -2.43573  -2.02243
H     3.22989  -1.78295  -1.24072
H     2.50885  -0.97064  -2.67221
H     1.81405   2.32907   2.34355
H     3.27709   1.27499   2.24260
H     1.75552   0.63343   2.95946
H    -1.27204  -0.23349  -2.64876
H    -0.46190  -1.82909  -2.50474
H     0.37401  -0.47361  -3.33545
H     1.06449   2.21098  -1.35201
H    -0.23020   3.45460  -1.37962
H    -0.28824   2.06260  -2.50027
