27
Generated by autodE on: 2022-06-03. E = -520.325017 Ha
C     3.62358   0.94412  -0.22499
N     2.19786   0.79546  -0.42701
C     1.51430  -0.25922   0.07942
O     2.10600  -1.14781   0.72081
C     0.06169  -0.26893  -0.18339
C    -0.88547  -0.98370   0.47953
C    -0.77478  -1.94880   1.60683
C    -2.23426  -0.49413  -0.02302
C    -2.40880   0.94070   0.57737
C    -1.33849   1.77090  -0.18799
C    -0.67535   0.69984  -1.10966
C    -1.89942  -0.15570  -1.48790
H     3.87498   1.04021   0.84434
H     4.17529   0.07581  -0.61927
H     3.96588   1.84550  -0.74826
H     1.69566   1.52173  -0.92362
H    -1.37130  -1.59058   2.46443
H    -1.20904  -2.92232   1.31847
H     0.26198  -2.10316   1.92514
H    -3.07684  -1.17077   0.17140
H    -2.26044   0.94443   1.66701
H    -3.42552   1.31026   0.37636
H    -1.80302   2.56405  -0.79322
H    -0.60094   2.24246   0.47699
H    -0.08717   1.11257  -1.93971
H    -2.69133   0.41616  -1.99642
H    -1.63661  -1.04117  -2.08556
