30
Generated by autodE on: 2022-06-03. E = -742.281156 Ha
C    -4.62331   1.39750   0.73395
N    -3.22856   1.04461   0.90016
C    -2.59967   0.24679   0.01504
O    -3.16438  -0.23627  -0.97287
C    -1.17402   0.01758   0.36844
N    -0.31694  -0.67374  -0.33164
C    -0.71089  -1.41752  -1.54820
C     1.06149  -0.52287  -0.04874
C     1.91900  -1.65954   0.03323
C     1.33509  -3.06113   0.06232
O     3.16946  -1.56505   0.14641
C     1.50817   0.88195   0.09215
O     0.71467   1.84791   0.06763
N     2.83777   1.07013   0.22092
C     3.41137   2.39318   0.30707
H    -4.93436   2.02484   1.57725
H    -5.25494   0.49580   0.70438
H    -4.78408   1.95244  -0.20441
H    -2.70739   1.43426   1.67966
H    -0.80322   0.45945   1.29079
H    -1.07466  -0.70095  -2.29488
H     0.17162  -1.92641  -1.94050
H    -1.50873  -2.13059  -1.31788
H     1.50864  -3.55566  -0.90741
H     0.26390  -3.10862   0.29425
H     1.89031  -3.63339   0.82015
H     3.40999   0.22110   0.18940
H     3.31134   2.95553  -0.63777
H     4.47979   2.30412   0.54292
H     2.92566   2.98798   1.09714
