30
Generated by autodE on: 2022-07-27. E = -742.281186 Ha
C     3.93032   2.91551   0.13844
N     3.04069   1.77337   0.09775
C     1.76899   1.89365  -0.33129
O     1.29039   2.96630  -0.71714
C     1.02899   0.60465  -0.29044
N    -0.21164   0.42563  -0.65265
C    -1.02006   1.50651  -1.25762
C    -0.86731  -0.76346  -0.25293
C    -1.66362  -1.50222  -1.17734
C    -1.62820  -1.16499  -2.65778
O    -2.37261  -2.48525  -0.83632
C    -0.68779  -1.11408   1.17418
O     0.06921  -0.47469   1.93695
N    -1.41803  -2.15607   1.62260
C    -1.38223  -2.56830   3.00670
H     4.03068   3.37009  -0.85964
H     4.91734   2.58527   0.48224
H     3.55202   3.68980   0.82518
H     3.37700   0.87208   0.42327
H     1.56135  -0.27491   0.06583
H    -1.14058   2.30859  -0.51905
H    -2.00249   1.10250  -1.50913
H    -0.51907   1.90693  -2.14466
H    -1.61735  -2.11443  -3.21296
H    -0.76750  -0.55987  -2.96902
H    -2.55243  -0.63494  -2.94050
H    -2.03681  -2.59204   0.93255
H    -1.94366  -3.50544   3.11424
H    -1.83148  -1.81674   3.67918
H    -0.34791  -2.73772   3.34655
