12
Generated by autodE on: 2022-06-16. E = -157.300302 Ha
C     1.96249   0.03009   0.07272
C     0.54065  -0.19598  -0.34348
C    -0.54065   0.19596   0.34349
C    -1.96250  -0.03007  -0.07273
H     2.51634   0.60610  -0.68982
H     2.02668   0.57538   1.02751
H     2.50303  -0.92646   0.18674
H     0.39210  -0.73058  -1.29220
H    -0.39210   0.73054   1.29223
H    -2.51651  -0.60567   0.68999
H    -2.50285   0.92653  -0.18719
H    -2.02669  -0.57571  -1.02732
