14
Generated by autodE on: 2022-06-16. E = -582.336153 Ha
C    -3.63596   0.24440  -0.55764
O    -2.20894   0.45811  -0.54097
C    -1.49178  -0.41271   0.13648
O    -1.89821  -1.37236   0.75390
C    -0.02580  -0.10972   0.08363
C     0.85370  -0.95788   0.80663
N     1.48453  -1.71026   1.43093
O     0.32754   0.90552  -0.62682
N     1.51183   1.44821  -0.90673
C     2.58503   0.87313  -0.37039
N     3.65086   0.53926  -0.01322
H    -3.86310  -0.71513  -1.04292
H    -4.05275   1.07739  -1.13329
H    -4.02723   0.24701   0.46902
