14
Generated by autodE on: 2022-07-27. E = -582.331316 Ha
C     1.02201  -0.68253  -2.85568
O     0.30190  -0.94830  -1.63203
C     0.53121  -0.14004  -0.61777
O     1.26561   0.82249  -0.59823
C    -0.17157  -0.61854   0.61197
C    -0.39406  -2.00467   0.82031
N    -0.58189  -3.14395   0.96320
O    -0.44701   0.11863   1.64213
N    -0.51548   1.44910   1.77413
C    -0.59214   2.16273   0.65964
N    -0.77823   2.93900  -0.20021
H     0.77048   0.32184  -3.22271
H     2.10271  -0.75832  -2.67255
H     0.69240  -1.44983  -3.56340
