57
Generated by autodE on: 2022-06-09. E = -3915.082109 Ha
C     1.00483   4.00830  -1.27805
N     0.98321   2.79443  -0.48711
C     1.07164   1.60195  -1.08546
O     1.38232   1.45751  -2.27217
C     0.83103   0.36103  -0.16145
C     2.14401  -0.43332  -0.22756
C     2.95921  -0.53119   0.90844
C     4.17912  -1.21208   0.85679
C     4.60780  -1.80078  -0.33497
C     3.80783  -1.69472  -1.47697
C     2.59107  -1.01166  -1.42652
O     0.64609   0.82060   1.16592
C    -0.56061   0.46785   1.81723
C    -0.19716  -0.18168   3.15561
C    -1.29041   1.80092   2.11319
O    -1.06290   2.84233   1.53248
O    -2.13587   1.70017   3.12902
C    -2.91393   2.86302   3.44766
C    -1.34557  -0.46357   0.81427
Br   -3.24295   0.16203   0.64959
C    -1.36649  -1.96780   1.21450
C    -2.31302  -2.78720   0.32158
C    -1.64238  -2.68156  -1.07038
C    -0.29544  -1.96783  -0.77001
C    -0.01442  -2.45296   0.66269
C    -0.51192  -0.44335  -0.54651
C    -1.15696   0.34125  -1.70141
O    -1.57638   1.48647  -1.52565
N    -1.15245  -0.23498  -2.91687
C    -1.49488   0.53011  -4.10027
H     1.88532   4.02505  -1.93524
H     1.04523   4.87587  -0.60711
H     0.10429   4.08951  -1.91163
H     0.48779   2.81329   0.40597
H     2.63076  -0.07705   1.84178
H     4.79587  -1.27950   1.75625
H     5.55967  -2.33554  -0.37614
H     4.13203  -2.14510  -2.41818
H     1.98854  -0.92348  -2.32781
H     0.36716   0.54496   3.75755
H    -1.09494  -0.47090   3.71393
H     0.43555  -1.06145   2.99813
H    -2.25771   3.70540   3.70745
H    -3.54697   3.13942   2.59185
H    -3.53580   2.58375   4.30548
H    -1.54908  -2.11188   2.28353
H    -2.31109  -3.82370   0.68863
H    -3.34915  -2.43315   0.33479
H    -1.43906  -3.67233  -1.50106
H    -2.26691  -2.13693  -1.78699
H     0.48011  -2.18901  -1.50735
H     0.08451  -3.54598   0.72635
H     0.86458  -2.00058   1.12874
H    -0.68977  -1.12784  -3.04020
H    -2.49433   0.97724  -3.99849
H    -0.76995   1.34455  -4.26735
H    -1.49097  -0.13761  -4.97063
