33
Generated by autodE on: 2022-06-09. E = -860.423841 Ha
C    -0.88799   3.57185  -0.22586
N    -0.95343   2.13550  -0.41445
C    -0.31857   1.29513   0.41729
O     0.30753   1.67646   1.41353
C    -0.46822  -0.16998   0.15281
O     0.53010  -0.97279   0.43599
C     1.84382  -0.78454   0.56104
C     2.56525  -1.91963   1.20176
C     2.48290   0.31750  -0.09693
O     1.93896   1.12497  -0.85336
O     3.81915   0.33558   0.13797
C     4.57173   1.32190  -0.57108
C    -1.72279  -0.84463  -0.12174
C    -1.71504  -2.21218  -0.49271
C    -2.90529  -2.88923  -0.73997
C    -4.13422  -2.22570  -0.63554
C    -4.15760  -0.87446  -0.27280
C    -2.97284  -0.18821  -0.01555
H     0.15148   3.93110  -0.29769
H    -1.48927   4.05953  -1.00248
H    -1.28048   3.85800   0.76195
H    -1.40265   1.76118  -1.24391
H     1.91640  -2.80828   1.21009
H     2.83538  -1.69628   2.25036
H     3.49758  -2.15849   0.66912
H     4.20955   2.33444  -0.33754
H     4.50777   1.16014  -1.65799
H     5.61062   1.20929  -0.23803
H    -0.76171  -2.73086  -0.60003
H    -2.87519  -3.94253  -1.02845
H    -5.06634  -2.75786  -0.83780
H    -5.11092  -0.34942  -0.17884
H    -3.01912   0.85660   0.28893
