42
Generated by autodE on: 2022-10-07. E = -1405.906939 Ha
C     0.71620   4.11501  -0.70550
N     0.77298   2.67257  -0.79402
C     1.13628   1.87265   0.21850
O     1.60103   2.26217   1.29139
C     0.93306   0.36009  -0.07744
C     2.30657  -0.16433  -0.51361
O     3.35133   0.21003  -0.02252
O     2.23220  -0.99862  -1.54968
C     3.45546  -1.61880  -1.96582
N    -0.07138   0.17111  -1.13654
C    -1.34764  -0.03650  -0.43540
C    -2.43684  -0.69332  -1.30959
C    -2.31291  -0.62689  -2.80223
O    -3.42783  -1.13046  -0.74826
C    -1.92750   1.35051  -0.09015
O    -2.34014   2.11788  -0.93721
O    -1.91322   1.62812   1.20709
C    -2.34133   2.94284   1.60146
C    -0.98467  -0.91416   0.77835
C    -0.89832  -2.39964   0.34153
O    -0.97115  -3.25922   1.24952
O    -0.75970  -2.63420  -0.89315
C     0.38986  -0.34043   1.22494
C     1.29961  -1.40117   1.88209
O     1.24481  -1.48103   3.13365
O     1.99607  -2.12411   1.12039
H     0.98965   4.42286   0.31147
H    -0.30183   4.46844  -0.92918
H     1.41220   4.58982  -1.41553
H     0.31757   2.19238  -1.56886
H     4.19222  -0.86050  -2.26630
H     3.19664  -2.25812  -2.81750
H     3.86139  -2.22455  -1.14277
H     0.13557  -0.72217  -1.58689
H    -3.17507  -1.12504  -3.26481
H    -1.37980  -1.08940  -3.15039
H    -2.28867   0.43332  -3.10105
H    -1.66416   3.69772   1.17744
H    -2.29034   2.95785   2.69568
H    -3.36898   3.12955   1.26075
H    -1.71140  -0.83995   1.59414
H     0.21676   0.43205   1.97868
