42
Generated by autodE on: 2022-10-07. E = -1405.839039 Ha. Imaginary frequency = -365.2 cm-1
C     1.79633   3.84364   0.69001
N     1.75416   2.43808   0.34322
C     0.80384   1.96248  -0.47242
O    -0.04260   2.68358  -1.02708
C     0.80532   0.48337  -0.72404
C     2.05449  -0.16057  -1.17841
O     3.17412   0.28797  -1.00929
O     1.82715  -1.34346  -1.77205
C     2.96454  -2.17999  -2.01140
N    -0.34753  -0.13956  -1.10446
C    -1.50045  -0.09282  -0.37868
C    -2.61184  -1.02463  -0.71951
C    -2.46978  -1.97454  -1.87363
O    -3.62038  -0.98886  -0.01957
C    -2.03015   1.23825   0.13756
O    -1.83828   1.72459   1.22901
O    -2.81255   1.79220  -0.79010
C    -3.36430   3.08118  -0.48024
C    -0.60980  -0.95185   1.43855
C    -0.60176  -2.43956   1.12791
O    -1.10566  -3.18274   2.00846
O    -0.13295  -2.82044   0.01881
C     0.54630  -0.17420   1.55665
C     1.98211  -0.62429   1.67290
O     2.81023   0.30109   1.95527
O     2.28916  -1.83020   1.49697
H     1.84814   4.47162  -0.21234
H     2.68732   4.03244   1.30239
H     0.90347   4.15062   1.26189
H     2.28256   1.75743   0.91329
H     3.66754  -1.69622  -2.70436
H     2.57133  -3.10323  -2.45206
H     3.46878  -2.39766  -1.05921
H    -0.15521  -1.09134  -1.43406
H    -2.20211  -1.43264  -2.79382
H    -1.66500  -2.69287  -1.65296
H    -3.41569  -2.51283  -2.01396
H    -3.99677   3.02398   0.41703
H    -2.55203   3.80360  -0.31699
H    -3.96340   3.36970  -1.35142
H    -1.48181  -0.60932   2.00034
H     0.38746   0.82356   1.96735
