33
Generated by autodE on: 2022-06-17. E = -674.027686 Ha
C    -2.66756  -1.92777   2.02715
C    -2.88450  -0.63850   1.29038
O    -3.93840  -0.02021   1.34257
C    -1.75832  -0.10318   0.45352
N    -0.80694  -0.87415   0.07624
C     0.07243  -0.12362  -0.83535
C     1.53442  -0.45212  -0.66737
C     2.37655  -0.52227  -1.78631
C     3.74629  -0.76021  -1.63513
C     4.29014  -0.93820  -0.35951
C     3.45684  -0.87254   0.76284
C     2.09015  -0.62691   0.60943
C    -0.27076   1.37043  -0.61163
C    -0.04315   2.25925  -1.82290
C    -1.72251   1.31287  -0.08990
C    -2.07566   2.42841   0.89101
H    -2.34956  -2.71800   1.33163
H    -3.58992  -2.22026   2.54510
H    -1.85180  -1.80059   2.75764
H    -0.22667  -0.41188  -1.85914
H     1.95137  -0.39175  -2.78490
H     4.38930  -0.81196  -2.51722
H     5.35929  -1.12921  -0.23942
H     3.87444  -1.01216   1.76310
H     1.44527  -0.57205   1.48939
H     0.36033   1.72432   0.22278
H     1.01363   2.24224  -2.13375
H    -0.65388   1.92378  -2.67710
H    -0.30943   3.30520  -1.60317
H    -2.42394   1.34815  -0.94570
H    -1.88094   3.40944   0.42978
H    -3.13355   2.39323   1.18370
H    -1.46128   2.35627   1.80310
