12
Generated by autodE on: 2022-06-17. E = -157.300301 Ha
C     1.96353   0.04887  -0.01339
C     0.52600  -0.15406  -0.38509
C    -0.52600   0.15414   0.38506
C    -1.96352  -0.04893   0.01341
H     2.06767   0.48757   0.99148
H     2.47287   0.71433  -0.73303
H     2.52032  -0.90492  -0.03113
H     0.33847  -0.59209  -1.37551
H    -0.33848   0.59217   1.37548
H    -2.06768  -0.48699  -0.99173
H    -2.47259  -0.71503   0.73266
H    -2.52058   0.90469   0.03188
