33
Generated by autodE on: 2022-06-17. E = -673.921401 Ha. Imaginary frequency = -435.6 cm-1
C    -2.70913  -1.29604   2.31411
C    -2.94146  -0.89116   0.88363
O    -4.05280  -0.87802   0.35464
C    -1.78947  -0.35953   0.17356
N    -0.91253  -0.80211  -0.55433
C     0.15291  -0.38995  -1.22797
C     1.49548  -0.55938  -0.68729
C     2.60660  -0.28410  -1.51011
C     3.90193  -0.35205  -0.99802
C     4.11406  -0.70466   0.34012
C     3.01674  -0.98937   1.16286
C     1.71895  -0.91935   0.65841
C    -0.37961   1.94748  -0.84355
C    -0.82953   2.27711  -2.24252
C    -1.25808   1.86255   0.21592
C    -0.79761   1.96494   1.64868
H    -1.71077  -1.73571   2.45577
H    -3.49419  -1.99999   2.62458
H    -2.77480  -0.39730   2.95127
H     0.04027  -0.30813  -2.31250
H     2.44079  -0.00733  -2.55430
H     4.75302  -0.13209  -1.64706
H     5.12934  -0.76212   0.73908
H     3.17576  -1.27090   2.20665
H     0.86851  -1.14638   1.30469
H     0.68433   2.07058  -0.61954
H    -0.10816   1.93798  -3.00227
H    -1.80264   1.81031  -2.46861
H    -0.95222   3.36750  -2.38321
H    -2.31517   2.08287   0.02670
H    -0.73804   3.02212   1.96690
H    -1.48066   1.45757   2.34654
H     0.20469   1.52651   1.77587
