34
Generated by autodE on: 2022-05-26. E = -841.367127 Ha
C    -2.53186   3.91087  -0.64351
C    -2.95948   2.49769  -0.39911
O    -4.11265   2.11844  -0.33384
N    -1.92091   1.55490  -0.24031
C    -2.08467   0.20652  -0.02966
C    -0.82585  -0.34379   0.05960
C    -0.51477  -1.77495   0.22521
C    -1.26929  -2.56534   1.11088
C    -1.00222  -3.92894   1.25296
C     0.02557  -4.52488   0.51555
C     0.77978  -3.74845  -0.37096
C     0.51195  -2.38660  -0.51775
C     0.07019   0.78263  -0.10298
C     1.54385   0.80642  -0.05955
C     2.25358  -0.00972   0.83925
C     3.64778   0.03802   0.88681
C     4.35293   0.89908   0.03949
C     3.65447   1.71913  -0.85285
C     2.26016   1.67458  -0.90234
N    -0.61049   1.90655  -0.28329
H    -1.92689   3.97188  -1.56034
H    -1.90411   4.27023   0.18495
H    -3.42793   4.53526  -0.73934
H    -3.07252  -0.24356   0.00675
H    -2.06262  -2.09999   1.70026
H    -1.59597  -4.52698   1.94844
H     0.23784  -5.59047   0.62999
H     1.57933  -4.20780  -0.95712
H     1.09553  -1.79204  -1.22250
H     1.71093  -0.67395   1.51304
H     4.18627  -0.59830   1.59299
H     5.44439   0.93186   0.07555
H     4.19877   2.39394  -1.51774
H     1.71453   2.30823  -1.60372
