14
Generated by autodE on: 2022-05-26. E = -308.537344 Ha
C     3.14645  -0.51553   0.44619
C     1.95869  -0.32106   0.27725
C     0.55838  -0.09162   0.07874
C    -0.25449  -1.09156  -0.49372
C    -1.61711  -0.86321  -0.68437
C    -2.18674   0.35843  -0.30953
C    -1.38675   1.35555   0.25909
C    -0.02316   1.13703   0.45389
H     4.19887  -0.68845   0.59596
H     0.19249  -2.04390  -0.78522
H    -2.23872  -1.64396  -1.12861
H    -3.25441   0.53354  -0.46056
H    -1.82827   2.31056   0.55292
H     0.60332   1.91323   0.89740
