20
Generated by autodE on: 2022-05-26. E = -532.686748 Ha
C     4.72555   0.35324   0.36187
C     3.28098  -0.02677   0.17813
O     2.93928  -1.16655  -0.15231
N     2.40259   1.00965   0.41132
N     1.17224   0.67680   0.25061
C     0.04505   0.42736   0.11877
C    -1.33229   0.12065  -0.04207
C    -2.30953   1.11240   0.18111
C    -3.65474   0.79069   0.01725
C    -4.03057  -0.50240  -0.36452
C    -3.05808  -1.48464  -0.58488
C    -1.70764  -1.18363  -0.42640
H     5.17686  -0.30804   1.11854
H     5.26448   0.17963  -0.58325
H     4.84618   1.39991   0.66728
H    -2.00478   2.11695   0.47816
H    -4.41579   1.55470   0.18828
H    -5.08770  -0.74601  -0.49094
H    -3.35411  -2.49261  -0.88247
H    -0.93819  -1.93870  -0.59444
