34
Generated by autodE on: 2022-05-26. E = -841.206979 Ha. Imaginary frequency = -391.6 cm-1
C    -3.71413   3.47592  -1.21131
C    -2.25418   3.44279  -0.83851
O    -1.46088   4.32061  -1.18227
N    -1.91301   2.33235  -0.10360
C    -2.55436   0.26680  -0.57291
C    -1.59362  -0.48304  -0.34701
C    -0.79987  -1.66818  -0.16016
C    -0.97020  -2.45577   0.99605
C    -0.16555  -3.57524   1.21153
C     0.82391  -3.92364   0.28675
C     0.99682  -3.14798  -0.86502
C     0.19509  -2.02960  -1.09018
C     0.06238   1.15147   0.22852
C     1.30601   0.50307   0.47454
C     1.47955  -0.26566   1.64337
C     2.65527  -0.99032   1.81958
C     3.65825  -0.95298   0.84400
C     3.48885  -0.18658  -0.31503
C     2.31237   0.53130  -0.51320
N    -0.66106   2.10294   0.12589
H    -4.34165   2.97400  -0.46271
H    -4.03533   4.51797  -1.34264
H    -3.84601   2.95378  -2.17413
H    -3.53902   0.60016  -0.85475
H    -1.72986  -2.17400   1.72759
H    -0.30722  -4.17402   2.11439
H     1.45958  -4.79414   0.46344
H     1.77022  -3.41023  -1.59062
H     0.34503  -1.41501  -1.97921
H     0.68572  -0.29672   2.39013
H     2.78889  -1.59289   2.72012
H     4.57617  -1.52755   0.98629
H     4.27266  -0.16083  -1.07484
H     2.15460   1.10927  -1.42507
