32
Generated by autodE on: 2022-07-27. E = -909.817617 Ha
C     0.24611   3.07312  -2.48160
N     0.15781   1.65714  -2.19629
C     0.40888   1.18174  -0.96200
O     0.65083   1.94215  -0.00887
C     0.44405  -0.30037  -0.80937
C     0.28033  -1.20532  -1.94607
O     0.31204  -0.87057  -3.12799
O     0.00696  -2.46595  -1.57882
C    -0.12664  -3.43158  -2.62918
N     0.68705  -0.81228   0.43344
C     1.58276  -1.98145   0.60442
C     0.22416  -0.22392   1.54932
C     0.79839  -0.56507   2.79655
N     1.23326  -0.80843   3.85233
C    -1.03193   0.60168   1.54154
O    -1.86821   0.49052   0.64188
N    -1.21197   1.39127   2.61298
C    -2.40726   2.20107   2.75241
H    -0.16111   3.25946  -3.48329
H    -0.33369   3.65040  -1.74661
H     1.28675   3.43957  -2.45132
H     0.12601   0.97971  -2.95750
H    -0.96966  -3.17243  -3.28566
H    -0.31504  -4.38994  -2.13165
H     0.79628  -3.48662  -3.22455
H     1.01328  -2.83412   0.99281
H     2.36615  -1.70166   1.32057
H     2.05246  -2.22759  -0.34859
H    -0.46930   1.49193   3.29787
H    -3.31101   1.57297   2.75084
H    -2.49342   2.92505   1.92616
H    -2.35480   2.74730   3.70138
