32
Generated by autodE on: 2022-06-13. E = -909.817624 Ha
C    -1.23145  -3.76295  -0.14640
N    -1.45638  -2.34614   0.04368
C    -0.54503  -1.44004  -0.35804
O     0.54855  -1.78585  -0.83701
C    -0.93770  -0.00640  -0.25714
C    -2.25863   0.40990   0.21131
O    -3.22843  -0.33231   0.34731
O    -2.30561   1.70223   0.56706
C    -3.57417   2.20750   1.00192
N    -0.03744   0.93631  -0.66476
C    -0.48522   2.11765  -1.44082
C     1.28450   0.78465  -0.47925
C     2.18282   1.57682  -1.23240
N     2.97027   2.20295  -1.82480
C     1.83156  -0.02213   0.66497
O     1.14614  -0.27811   1.65778
N     3.12756  -0.35943   0.56444
C     3.79410  -1.09264   1.62345
H    -1.28087  -4.05310  -1.21017
H    -1.99886  -4.32152   0.40408
H    -0.23949  -4.04896   0.23285
H    -2.38599  -1.99880   0.27734
H    -4.32892   2.09266   0.21038
H    -3.90976   1.67901   1.90573
H    -3.41365   3.26927   1.22173
H    -1.54176   2.01371  -1.69127
H     0.09565   2.14770  -2.37180
H    -0.30704   3.03278  -0.86378
H     3.63227  -0.17176  -0.29632
H     3.75700  -0.53572   2.57204
H     4.84233  -1.24539   1.34118
H     3.31927  -2.07375   1.78487
