55
Generated by autodE on: 2022-06-13. E = -2938.012697 Ha. Imaginary frequency = -205.2 cm-1
C    -8.43229   2.56634   4.75136
N    -7.64123   1.35108   4.79477
C    -7.65978   0.47883   3.78270
O    -8.38887   0.59257   2.79541
C    -6.80086  -0.76770   3.93891
C    -7.15147  -1.58058   5.05684
N    -7.48858  -2.22943   5.96341
C    -4.41828  -0.12201   4.28625
C    -3.94969  -0.27703   3.13798
C    -5.82618  -0.77972   1.76335
C    -6.09719   0.69562   1.43332
O    -5.76537   1.63756   2.14936
N    -6.69603   0.87955   0.23987
C    -7.07928   2.21172  -0.18854
C    -5.70643  -1.64282   0.51349
O    -4.73593  -1.79712  -0.18181
O    -6.90957  -2.17297   0.23409
C    -6.98827  -3.00110  -0.93921
N    -6.38151  -1.42003   2.82278
C    -6.06197  -2.85406   2.99351
C    -2.68658  -0.18937   2.37931
Cl   -2.92530   0.47842   0.68822
C    -2.06200  -1.59766   2.23865
F    -0.95583  -1.57613   1.48496
F    -1.71497  -2.06186   3.45182
F    -2.90190  -2.49123   1.70783
C    -1.68778   0.74825   3.08512
C    -2.24378   2.15008   3.39889
C    -2.49851   2.43719   4.88462
C    -3.80011   1.95578   5.53415
C    -4.07862   0.44612   5.59599
Cl   -2.63009  -0.45718   6.27785
Cl   -5.38263   0.21428   6.88258
H    -9.49791   2.33526   4.60564
H    -8.10502   3.21932   3.92610
H    -8.30847   3.10091   5.70078
H    -6.95986   1.22527   5.53917
H    -7.15731   0.09187  -0.20620
H    -7.45153   2.15881  -1.21885
H    -7.86788   2.62734   0.46050
H    -6.21219   2.88598  -0.15304
H    -6.31145  -3.86166  -0.84051
H    -8.02948  -3.33688  -0.99809
H    -6.72047  -2.41981  -1.83285
H    -5.36330  -2.95418   3.83567
H    -6.98277  -3.41308   3.19611
H    -5.57444  -3.25439   2.10256
H    -1.37371   0.24866   4.01100
H    -0.79945   0.81287   2.44187
H    -1.50410   2.88552   3.05027
H    -3.15577   2.34292   2.81321
H    -1.64547   2.07202   5.47885
H    -2.51083   3.53068   5.01857
H    -4.66955   2.39540   5.02012
H    -3.81243   2.32347   6.56988
