17
Generated by autodE on: 2022-06-30. E = -505.775559 Ha
C     3.13293   0.32684   0.12355
N     1.94906  -0.47384   0.37419
C     0.87123  -0.37543  -0.41007
O     0.79624   0.28972  -1.44123
N    -0.19045  -1.25097  -0.02489
N    -1.36096  -0.78074   0.10676
C    -2.45948  -1.76756   0.17216
N    -1.79084   0.45344   0.21432
C    -0.93906   1.44816   0.38665
N    -0.32832   2.42485   0.60208
H     2.91166   1.40150   0.22775
H     3.90719   0.04975   0.84825
H     3.51483   0.15079  -0.89307
H     1.88593  -1.04120   1.21424
H    -2.02948  -2.76580   0.06132
H    -3.15535  -1.53987  -0.64497
H    -2.96772  -1.64862   1.13657
