49
Generated by autodE on: 2022-06-05. E = -1390.018457 Ha
C     4.11277  -2.88095  -0.08905
N     3.30937  -1.74768  -0.49534
C     3.05628  -0.74133   0.34802
O     3.48656  -0.70837   1.51577
C     2.19323   0.37703  -0.12559
C     1.44850   0.63470  -1.23434
C     1.41742  -0.01940  -2.56380
C     0.84316   0.77896  -3.69999
O     1.90135  -1.13271  -2.76370
C     0.67453   1.90462  -0.87661
O     1.64282   2.61388  -0.09391
C     1.92426   1.54423   0.81711
C     0.52049   1.37161   1.46926
C     0.16670  -0.02033   2.01311
C    -0.61427   0.06909   3.27137
N    -1.23610   0.08759   4.25109
N    -0.56247  -0.66981   0.92984
C    -1.17991  -1.94504   1.26313
C    -1.30224   0.34544   0.17364
C    -1.64822  -0.04478  -1.26640
O    -2.32809   0.67994  -1.96365
O    -1.14352  -1.20461  -1.65594
C    -1.53230  -1.70449  -2.94943
C    -2.64849   0.65891   0.87567
O    -2.82307   1.57550   1.64826
O    -3.55668  -0.27304   0.60518
C    -4.80718  -0.19419   1.31214
C    -0.39724   1.60076   0.23970
H     4.22885  -3.55903  -0.94324
H     5.11005  -2.55932   0.24997
H     3.64005  -3.43192   0.74089
H     2.84775  -1.72737  -1.41269
H     1.42654   1.70780  -3.81604
H    -0.19454   1.08139  -3.49524
H     0.89023   0.19210  -4.62518
H     0.30259   2.51622  -1.70198
H     2.73451   1.79018   1.50847
H     0.39644   2.14940   2.22986
H     1.06595  -0.60603   2.26529
H    -0.39631  -2.62112   1.63749
H    -1.96280  -1.86486   2.04047
H    -1.62184  -2.39533   0.36787
H    -1.34008  -0.95959  -3.73090
H    -2.60176  -1.95792  -2.93531
H    -0.92584  -2.60104  -3.11525
H    -4.62991  -0.25314   2.39510
H    -5.39866  -1.05140   0.97237
H    -5.32031   0.74699   1.07011
H    -1.01499   2.49580   0.34942
