25
Generated by autodE on: 2022-06-05. E = -668.367403 Ha
C     3.50264  -1.51949   0.37734
N     2.14537  -1.15362   0.03200
C     1.74361   0.12563   0.05370
O     2.49844   1.07761   0.31502
C     0.32111   0.40718  -0.26752
C    -0.83517  -0.30006  -0.24636
C    -1.11445  -1.70832   0.07888
C    -2.53231  -2.04516   0.43929
O    -0.23888  -2.57548   0.05453
C    -1.93529   0.77745  -0.48099
C    -1.97693   1.66099   0.78581
C    -0.82993   2.34519   0.76185
C    -0.11563   1.86807  -0.52109
O    -1.23681   1.64080  -1.38836
H     3.64210  -2.59141   0.19072
H     3.72479  -1.31233   1.43797
H     4.22556  -0.95447  -0.23090
H     1.42228  -1.87224  -0.08275
H    -3.17797  -1.91084  -0.44467
H    -2.90631  -1.35722   1.21495
H    -2.59685  -3.08379   0.78696
H    -2.88825   0.42894  -0.88979
H    -2.76945   1.64388   1.53288
H    -0.41064   3.04348   1.48478
H     0.63907   2.52573  -0.96144
