24
Generated by autodE on: 2022-07-27. E = -721.556401 Ha
C    -0.54474   0.26215  -3.82482
O    -0.68458   0.10903  -2.40896
C     0.43966  -0.15647  -1.72117
O     1.51477  -0.33493  -2.27928
C     0.22167  -0.21473  -0.27698
C    -1.00417   0.34426   0.32134
O    -1.64256   1.28059  -0.12474
O    -1.39619  -0.33642   1.41538
C    -2.50850   0.19797   2.14243
N     1.17765  -0.81907   0.50573
C     2.02041  -1.90709  -0.05580
C     1.42673  -0.52482   1.77659
C     0.93382   0.62917   2.41755
N     0.58546   1.59174   2.97668
H     0.16230   1.07080  -4.06229
H    -1.54379   0.51366  -4.20013
H    -0.19256  -0.67264  -4.28552
H    -2.31231   1.23789   2.43996
H    -2.61894  -0.43403   3.03133
H    -3.42309   0.15764   1.53329
H     2.91609  -1.47268  -0.51138
H     1.44804  -2.46266  -0.80313
H     2.30504  -2.56797   0.76966
H     2.07987  -1.18915   2.34250
