21
Generated by autodE on: 2022-06-29. E = -777.397996 Ha
C    -4.74867   0.33713   0.17207
N    -3.39542  -0.18045   0.19843
C    -2.33394   0.62243  -0.02835
O    -2.43189   1.83078  -0.27887
C    -1.03306  -0.04150   0.04526
O     0.09942   0.71911  -0.17010
C     1.13339  -0.04173  -0.04642
C     2.50360   0.51542  -0.23185
O     2.68575   1.67727  -0.51023
O     3.41326  -0.42189  -0.05229
C     4.78993  -0.02224  -0.21076
O     0.84215  -1.26476   0.23624
C    -0.65366  -1.36049   0.32045
O    -1.17774  -2.41650   0.57579
H    -4.99533   0.76570  -0.81243
H    -5.44400  -0.48414   0.38274
H    -4.89241   1.12519   0.92869
H    -3.24065  -1.16288   0.40681
H     5.03291   0.77453   0.50572
H     4.95893   0.33292  -1.23691
H     5.38396  -0.91958  -0.00900
