54
Generated by autodE on: 2022-06-29. E = -1547.257166 Ha. Imaginary frequency = -222.6 cm-1
C    -5.33767   3.00652  -0.30487
N    -4.63485   1.92426   0.35397
C    -4.40535   0.75241  -0.27251
O    -4.77722   0.49983  -1.42501
C    -3.62945  -0.21273   0.51214
O    -3.42318  -1.46596   0.01123
C    -2.58415  -2.06131   0.83608
C    -2.17190  -3.47664   0.70170
O    -1.53754  -4.04373   1.56447
O    -2.52718  -3.97061  -0.47331
C    -2.10042  -5.31658  -0.75950
O    -2.54697  -1.45563   2.01191
C    -3.14532  -0.17000   1.84580
O    -3.14888   0.65567   2.73412
C    -0.69664  -1.08095  -0.14906
C     0.36858  -0.98468   0.95905
O    -0.21240   0.01454   1.80447
C    -0.36913   1.00267   0.78015
C     1.08139   1.08298   0.22413
C     1.60463   2.28200  -0.43524
C     1.27522   3.56269   0.05175
C     1.75490   4.71252  -0.57890
C     2.56042   4.60751  -1.71660
C     2.87905   3.34160  -2.22286
C     2.40643   2.19196  -1.59186
C     1.56083  -0.18013   0.36091
C     2.83826  -0.80928   0.03758
C     4.05381  -0.09373   0.06757
C     5.25833  -0.72485  -0.23608
C     5.28048  -2.08344  -0.57670
C     4.08545  -2.80809  -0.59847
C     2.87729  -2.18143  -0.28591
C    -1.15760   0.20440  -0.26723
H    -4.83101   3.29860  -1.23830
H    -5.36494   3.87151   0.36835
H    -6.37161   2.72083  -0.55688
H    -4.30295   2.04366   1.30808
H    -2.52997  -6.01275  -0.02596
H    -1.00327  -5.37560  -0.73191
H    -2.47307  -5.53887  -1.76500
H    -0.71793  -1.85135  -0.91883
H     0.60986  -1.89933   1.50965
H    -0.82278   1.92372   1.15805
H     0.64997   3.65769   0.94159
H     1.49616   5.69597  -0.17936
H     2.93282   5.50717  -2.21203
H     3.49461   3.25060  -3.12103
H     2.64635   1.21086  -2.00362
H     4.05020   0.96104   0.34515
H     6.18975  -0.15460  -0.20189
H     6.22651  -2.57493  -0.81532
H     4.09237  -3.86966  -0.85672
H     1.95120  -2.76008  -0.30818
H    -1.70369   0.64326  -1.09979
