19
Generated by autodE on: 2022-06-08. E = -552.524645 Ha
C     2.73762  -0.75438   0.04813
C     1.39772  -1.25901  -0.40197
O     1.22263  -2.40346  -0.80500
C     0.23518  -0.34970  -0.34671
C     0.06016   0.87114   0.20853
C     0.96687   1.71164   0.88638
N     1.68891   2.43318   1.44817
C    -1.46248   1.17502   0.02293
C    -2.21426   0.20074   0.95229
C    -2.03580  -1.00308   0.40125
C    -1.17368  -0.74319  -0.85079
O    -1.65873   0.55110  -1.24843
H     2.70269  -0.50971   1.12244
H     3.00316   0.17103  -0.48656
H     3.49993  -1.52401  -0.12734
H    -1.74726   2.23123   0.03358
H    -2.71426   0.48320   1.87756
H    -2.34764  -1.98695   0.74889
H    -1.20494  -1.47680  -1.66115
