58
Generated by autodE on: 2022-06-08. E = -1472.285983 Ha. Imaginary frequency = -332.3 cm-1
C     0.77933   2.13523   2.83364
C     1.72631   1.97586   1.67787
O     2.93054   1.81840   1.83442
C     1.19491   2.08802   0.29897
C     0.06865   2.68721  -0.16101
C    -0.95434   3.36535   0.53727
N    -1.76072   4.00087   1.08634
C     0.19882   2.65464  -1.70192
O     1.62530   2.85394  -1.80955
C     1.97276   1.71858  -0.97232
C     1.22727   0.58229  -1.71546
C     0.07207   1.19662  -2.17057
C    -1.58331  -0.06118  -0.75478
C    -1.87306  -0.74505  -1.96537
N    -2.19206  -1.22261  -2.98230
C    -2.67713   0.75416  -0.18641
C    -3.48597   1.53060  -1.03887
C    -4.51696   2.31028  -0.51953
C    -4.76271   2.33196   0.85849
C    -3.97151   1.55711   1.71048
C    -2.94154   0.76858   1.19613
N    -0.58190  -0.47315   0.07686
C     0.58540  -1.07444  -0.27908
C     0.48743  -2.28855  -1.16030
C    -0.56008  -3.19296  -0.89708
C    -0.68330  -4.38051  -1.61734
C     0.24713  -4.69978  -2.61045
C     1.30510  -3.82317  -2.86384
C     1.42849  -2.63252  -2.14333
C     1.62516  -1.13976   0.79021
C     2.99003  -1.21006   0.45830
C     3.96092  -1.27945   1.45631
C     3.59182  -1.28899   2.80607
C     2.23869  -1.23908   3.14712
C     1.26359  -1.17158   2.15010
H    -0.15079   1.56947   2.67986
H     0.50395   3.19946   2.92564
H     1.27407   1.81577   3.75927
H    -0.37706   3.40801  -2.24644
H     3.05267   1.60918  -0.84827
H     1.78784  -0.16861  -2.26166
H    -0.51540   0.92558  -3.04291
H    -3.29074   1.52889  -2.11317
H    -5.12900   2.91288  -1.19468
H    -5.56926   2.94693   1.26380
H    -4.16070   1.55705   2.78637
H    -2.35667   0.14835   1.87843
H    -0.52826   0.09043   0.92327
H    -1.28882  -2.95919  -0.11907
H    -1.50961  -5.06052  -1.39750
H     0.15197  -5.62798  -3.17850
H     2.04501  -4.06306  -3.63083
H     2.26972  -1.97793  -2.36520
H     3.29891  -1.18334  -0.58599
H     5.01635  -1.31666   1.17707
H     4.35544  -1.33934   3.58540
H     1.93369  -1.25928   4.19576
H     0.21136  -1.16250   2.43995
