14
Generated by autodE on: 2022-10-21. E = -1227.029779 Ha
C    -1.76760   2.03751   1.00796
O    -0.75008   1.72027   0.04361
C    -0.52410   0.41259  -0.16014
Cl   -1.76791  -0.46938  -1.02932
C     0.60317  -0.17978   0.27968
Cl    1.00182  -1.84314  -0.11418
O     1.48375   0.47989   1.04909
C     2.71796   0.84968   0.41172
H    -1.81214   3.13198   1.06578
H    -1.50337   1.61749   1.99124
H    -2.74348   1.64301   0.68432
H     3.30854   1.38716   1.16376
H     2.51841   1.50447  -0.45110
H     3.26594  -0.04637   0.08065
