41
Generated by autodE on: 2022-10-21. E = -1876.488531 Ha. Imaginary frequency = -384.6 cm-1
C     0.02662  -3.34042   0.78231
O     0.12942  -2.15791  -0.02754
C    -0.38827  -1.01512   0.47977
Cl    0.18164  -0.56487   2.08844
C     1.01073   0.41219  -0.84238
C     0.75605  -0.39248  -2.00446
N     0.55741  -1.02926  -2.95851
C     2.36252   0.27890  -0.26752
C     2.74798   0.85363   0.96483
C     4.01498   0.61758   1.49810
C     4.92880  -0.20353   0.83333
C     4.55946  -0.79278  -0.37953
C     3.29840  -0.55563  -0.92076
N     0.17152   1.50184  -0.70845
C     0.58594   2.71670   0.00317
C    -1.13032   1.29386  -1.07566
C    -2.22641   2.24919  -0.83706
C    -3.47582   1.96467  -1.62960
O    -2.17126   3.17306  -0.02976
C    -1.64400  -0.51615   0.05394
Cl   -2.77115   0.13092   1.31174
O    -2.27215  -1.12591  -0.98177
C    -2.94389  -2.36988  -0.72934
H     0.28136  -4.18165   0.12558
H     0.74206  -3.29275   1.61719
H    -0.99275  -3.46696   1.17729
H     2.06253   1.47339   1.53259
H     4.28320   1.07740   2.45191
H     5.91858  -0.38571   1.25784
H     5.25877  -1.44038  -0.91303
H     3.03701  -1.02506  -1.86945
H     0.32334   2.67292   1.06840
H     0.07720   3.57313  -0.44555
H     1.66560   2.84193  -0.11576
H    -1.26873   0.65513  -1.94654
H    -4.31671   2.54034  -1.22182
H    -3.30637   2.25681  -2.68030
H    -3.70612   0.88927  -1.62745
H    -3.48085  -2.33271   0.22998
H    -3.66360  -2.50389  -1.54706
H    -2.22936  -3.20461  -0.73105
