51
Generated by autodE on: 2022-06-07. E = -2094.896343 Ha
C    -2.77936   0.40092   2.10451
N    -1.49213   0.49363   2.77612
C    -0.61036  -0.50552   2.90049
O     0.42083  -0.44211   3.57871
C    -0.85649  -1.74717   2.07394
N    -0.59221  -1.71554   0.81649
C    -0.74161  -3.08867   0.30839
C     0.74263  -3.36214  -0.09258
C     1.26618  -2.71702  -1.34575
O     1.46587  -3.97750   0.66246
C    -1.80322  -3.09914  -0.79877
C    -3.03292  -2.48132  -0.51696
C    -4.06730  -2.48705  -1.45284
C    -3.88781  -3.10965  -2.69256
C    -2.66837  -3.72526  -2.98040
C    -1.63332  -3.72395  -2.03936
C    -1.17052  -3.92538   1.51896
C    -1.26504  -3.08208   2.58009
C    -1.68887  -3.23227   4.02708
C    -0.48538  -3.43250   4.93799
F    -2.23336  -1.94623   4.34933
C    -2.81932  -4.20929   4.33379
C    -3.95650  -4.30116   3.30285
C    -3.93981  -5.58609   2.46810
C    -3.02163  -5.67617   1.24703
C    -1.51910  -5.39349   1.40381
Cl   -0.72325  -6.12198  -0.08307
Cl   -0.80902  -6.34621   2.79310
H    -3.25561  -0.56684   2.31264
H    -2.68997   0.52514   1.01492
H    -3.43258   1.19242   2.49253
H    -1.27620   1.33766   3.30165
H     0.60354  -1.93839  -1.73971
H     2.26186  -2.30328  -1.12928
H     1.39329  -3.49657  -2.11434
H    -3.18916  -1.99996   0.44898
H    -5.01676  -2.00402  -1.21104
H    -4.69537  -3.11577  -3.42829
H    -2.51499  -4.21825  -3.94311
H    -0.70367  -4.23202  -2.28605
H     0.00314  -4.38760   4.70428
H     0.23913  -2.62030   4.79496
H    -0.81496  -3.44590   5.98770
H    -2.39386  -5.20274   4.51835
H    -3.21196  -3.86547   5.30234
H    -4.91169  -4.28294   3.84858
H    -3.96816  -3.41206   2.65008
H    -3.72942  -6.43740   3.13611
H    -4.95177  -5.76074   2.06873
H    -3.10942  -6.69303   0.83983
H    -3.36841  -4.98689   0.46204
