23
Generated by autodE on: 2022-06-07. E = -1370.022676 Ha
C     1.51169  -2.97525  -0.99390
C     1.80632  -1.49197  -0.83609
F     3.18367  -1.36337  -0.57453
C     1.02897  -0.87710   0.24239
C     0.12690  -0.25107   0.75642
C    -1.00333   0.64678   0.77696
Cl   -0.42098   2.32820   1.20447
Cl   -2.24409   0.16116   2.01896
C    -1.64628   0.65181  -0.62134
C    -0.67309   0.85688  -1.79987
C     0.01548  -0.39173  -2.41996
C     1.50152  -0.65445  -2.09830
H     1.75047  -3.51315  -0.06529
H     2.12564  -3.37658  -1.81377
H     0.45075  -3.13478  -1.23237
H    -2.41415   1.43946  -0.61480
H    -2.16694  -0.31258  -0.72938
H    -1.27760   1.31884  -2.59463
H     0.08060   1.61401  -1.52817
H    -0.58149  -1.29368  -2.20395
H    -0.03483  -0.26826  -3.51209
H     2.03143   0.30384  -1.97714
H     1.97413  -1.18278  -2.94169
