51
Generated by autodE on: 2022-06-07. E = -2094.781023 Ha. Imaginary frequency = -205.2 cm-1
C    -3.00013   0.51499   2.36015
N    -1.71206   0.67337   3.01281
C    -0.67719  -0.16888   2.90949
O     0.39995  -0.06139   3.50114
C    -0.88837  -1.33919   2.02022
N    -0.65492  -1.58978   0.86907
C    -0.47296  -2.39169  -0.15055
C     0.87634  -3.04974  -0.11931
C     1.42776  -3.71303  -1.35224
O     1.53566  -2.99858   0.91372
C    -1.44674  -2.33862  -1.25744
C    -2.34718  -1.25430  -1.32576
C    -3.32084  -1.19311  -2.32068
C    -3.41573  -2.20870  -3.27843
C    -2.52938  -3.28720  -3.22068
C    -1.55867  -3.35820  -2.22130
C    -1.68975  -4.14379   1.70074
C    -1.61971  -3.41610   2.69576
C    -1.86387  -3.22438   4.14452
C    -0.58260  -3.10258   4.95199
F    -2.58735  -2.01459   4.30812
C    -2.76873  -4.36324   4.64605
C    -3.97143  -4.68264   3.73773
C    -3.90812  -6.01595   2.97148
C    -2.65748  -6.37873   2.15543
C    -2.19031  -5.36531   1.10110
Cl   -0.87262  -6.17915   0.10439
Cl   -3.57408  -4.96243  -0.02632
H    -3.19486  -0.54597   2.15728
H    -3.79032   0.88325   3.02777
H    -3.05277   1.07295   1.41190
H    -1.56263   1.47674   3.62020
H     1.20182  -3.14118  -2.26282
H     2.51340  -3.81672  -1.22550
H     0.99803  -4.71919  -1.46683
H    -2.27880  -0.44963  -0.59117
H    -4.00601  -0.34263  -2.35134
H    -4.17624  -2.15982  -4.06107
H    -2.60279  -4.09654  -3.95086
H    -0.92578  -4.23962  -2.17084
H    -0.83152  -2.96233   6.01469
H     0.01474  -4.01926   4.84688
H     0.01786  -2.25031   4.60799
H    -2.13597  -5.25376   4.78219
H    -3.10297  -4.06238   5.65106
H    -4.88348  -4.72018   4.35338
H    -4.13235  -3.85256   3.03267
H    -4.02552  -6.83929   3.69633
H    -4.78483  -6.06957   2.30719
H    -1.79209  -6.53558   2.81809
H    -2.84726  -7.33287   1.64136
