48
Generated by autodE on: 2022-06-10. E = -2076.014912 Ha
C     1.16797   4.66680   0.42253
O     1.08707   3.23208   0.30541
C     0.78754   2.55934   1.39929
O     0.60792   3.00604   2.50285
C     0.77593   1.06467   1.07934
O     0.71124   0.28957   2.30982
C     1.33825  -0.87394   2.00827
O     1.51731  -1.77611   2.76581
C     1.78132  -0.68132   0.50461
C     2.96545  -1.44337   0.15131
N     3.94241  -2.02208  -0.07440
O     2.03794   0.72464   0.56146
C     0.47417  -0.71313  -0.34818
C    -0.20414   0.37294   0.08031
C    -1.64544   0.75228  -0.18294
Cl   -2.68878  -0.71256   0.29495
C    -2.19457   1.82411   0.79566
F    -1.63132   3.02581   0.57031
F    -3.50964   1.98361   0.64550
F    -1.95230   1.50681   2.07390
C    -1.92731   1.23739  -1.63446
C    -0.88266   0.91705  -2.70472
C    -0.93632  -0.48954  -3.29804
C    -0.97258  -1.66519  -2.32146
C     0.21277  -1.84105  -1.32845
C     0.08621  -3.14473  -0.48023
C    -1.01196  -4.12251  -0.75357
O     0.90746  -3.33096   0.39927
C     1.46045  -1.93536  -2.26557
C     1.81287  -3.26811  -2.84729
O     2.07583  -0.91932  -2.52237
H     1.96321   4.94037   1.12936
H     0.20538   5.06800   0.76813
H     1.40089   5.03414  -0.58233
H    -2.92451   0.88045  -1.92840
H    -1.99355   2.33222  -1.57468
H     0.12224   1.14119  -2.31834
H    -1.04990   1.63042  -3.52666
H    -1.85482  -0.57615  -3.90202
H    -0.09904  -0.60304  -4.00381
H    -1.90579  -1.64200  -1.75285
H    -1.01599  -2.58374  -2.92091
H    -1.99210  -3.63859  -0.62387
H    -0.96369  -4.47787  -1.79351
H    -0.91890  -4.96854  -0.06161
H     0.91958  -3.82378  -3.16562
H     2.30700  -3.86276  -2.06068
H     2.50812  -3.13534  -3.68563
