15
Generated by autodE on: 2022-06-10. E = -661.548078 Ha
C    -4.05199   0.34617  -0.63059
O    -2.66619  -0.05670  -0.67008
C    -1.84398   0.58519   0.13123
O    -2.10143   1.47410   0.90576
C    -0.44658   0.06550  -0.02626
O    -0.07048  -0.85280  -0.83601
C     1.43320  -1.03000  -0.66604
O     2.01094  -1.84213  -1.32693
C     1.68792  -0.07291   0.32916
C     2.88187   0.28402   0.96012
N     3.89217   0.56393   1.47287
O     0.50371   0.56805   0.68354
H    -4.45158   0.20462   0.38294
H    -4.13980   1.40114  -0.92500
H    -4.56827  -0.30123  -1.34666
