48
Generated by autodE on: 2022-06-10. E = -2075.947061 Ha. Imaginary frequency = -261.7 cm-1
C     1.12017   4.30985   2.25024
O     1.25692   2.95259   1.78367
C     0.46488   2.05417   2.33300
O    -0.36093   2.22714   3.19482
C     0.74493   0.69201   1.76818
O     0.41065  -0.37105   2.49060
C     1.18137  -1.47745   2.03263
O     1.04341  -2.58072   2.48463
C     2.00448  -0.87579   1.01291
C     3.15225  -1.39408   0.38348
N     4.10218  -1.82803  -0.12979
O     1.84675   0.47807   1.08071
C    -0.08177  -0.90503  -0.46939
C    -0.60162   0.14775  -0.06498
C    -1.76329   1.01618  -0.38001
Cl   -2.89155   1.04976   1.06139
C    -1.36487   2.49119  -0.66309
F    -0.26877   2.54262  -1.43383
F    -2.34352   3.14323  -1.30002
F    -1.10198   3.18504   0.45168
C    -2.53907   0.42602  -1.58016
C    -1.66341   0.15968  -2.82526
C    -1.54940  -1.31800  -3.22953
C    -1.22434  -2.32643  -2.12551
C     0.10265  -2.09480  -1.31489
C     0.36972  -3.35247  -0.43202
C    -0.78336  -3.90529   0.35118
O     1.47980  -3.84148  -0.40156
C     1.26741  -1.86210  -2.30853
C     1.66648  -2.98915  -3.21841
O     1.81181  -0.77652  -2.36392
H     1.37920   4.36440   3.31666
H     0.09084   4.65945   2.09665
H     1.82226   4.89983   1.65198
H    -2.99285  -0.50352  -1.21326
H    -3.36814   1.10700  -1.80960
H    -0.65398   0.56554  -2.67847
H    -2.07988   0.71505  -3.67860
H    -2.50772  -1.64787  -3.66408
H    -0.80679  -1.39727  -4.04016
H    -2.04528  -2.36372  -1.39768
H    -1.16032  -3.32933  -2.57292
H    -1.38571  -3.10319   0.80136
H    -1.44033  -4.46743  -0.33232
H    -0.40470  -4.58494   1.12366
H     0.92903  -3.79891  -3.26935
H     2.61077  -3.40499  -2.83249
H     1.86124  -2.58133  -4.22060
