46
Generated by autodE on: 2022-06-18. E = -831.578651 Ha
C    -4.23839   2.39913  -0.09171
N    -3.37689   1.25304   0.11017
C    -2.08795   1.37631   0.44876
O    -1.54375   2.46901   0.66545
C    -1.29720   0.06943   0.57048
C    -0.70133  -0.00937   1.97871
O    -2.17943  -1.02810   0.34063
C    -1.49287  -2.14959  -0.28492
C    -1.40823  -3.28999   0.72854
C    -2.32064  -2.58294  -1.49263
C    -0.09985  -1.59542  -0.65619
C    -0.21529  -0.06088  -0.56916
C    -0.74607   0.53157  -1.89233
C     1.06493   0.65572  -0.22907
C     2.30635   0.13368  -0.21275
C     3.49673   0.91638   0.08414
C     4.77672   0.47542   0.12492
C     5.19579  -0.94380  -0.14046
C     5.90548   1.41388   0.45084
H    -4.17066   3.08976   0.76211
H    -3.96501   2.95920  -1.00181
H    -5.27586   2.05618  -0.18926
H    -3.70318   0.31136  -0.08525
H    -0.00755  -0.85636   2.06525
H    -1.51635  -0.14426   2.70603
H    -0.15813   0.91139   2.22695
H    -0.86646  -2.97368   1.63169
H    -0.87816  -4.15055   0.29126
H    -2.41675  -3.62015   1.02311
H    -1.87785  -3.47853  -1.95449
H    -3.34666  -2.83127  -1.17864
H    -2.37157  -1.79329  -2.25467
H     0.22039  -1.92486  -1.65402
H     0.64282  -1.95947   0.06599
H    -0.77932   1.62982  -1.84561
H    -1.75741   0.17191  -2.12429
H    -0.07926   0.24760  -2.71976
H     0.94308   1.72493  -0.02044
H     2.44028  -0.92877  -0.43371
H     3.31958   1.97760   0.29758
H     5.91081  -0.98110  -0.98140
H     5.73100  -1.35478   0.73386
H     4.35935  -1.61499  -0.37432
H     6.45781   1.06867   1.34339
H     5.55306   2.43936   0.63601
H     6.64251   1.44187  -0.37189
