23
Generated by autodE on: 2022-06-18. E = -479.948520 Ha
C     3.16954   1.07344   0.64214
N     1.83294   0.52549   0.58220
C     1.36810  -0.06061  -0.57304
O     2.17204  -0.33686  -1.50089
C    -0.03163  -0.37645  -0.65912
C    -0.65244  -0.94397  -1.89123
O    -0.74864   0.07203   0.39887
C    -1.97122   0.01762   0.79353
C    -3.03275  -0.75803   0.09506
C    -2.24736   0.70436   2.08325
H     3.91562   0.31452   0.36402
H     3.37819   1.39932   1.67019
H     3.31491   1.94037  -0.03007
H     1.14376   0.89599   1.22570
H     0.16797  -1.19955  -2.57448
H    -1.24080  -1.85933  -1.72129
H    -1.30460  -0.22052  -2.41422
H    -2.81577  -1.83969   0.15305
H    -3.99586  -0.57792   0.59016
H    -3.13056  -0.49592  -0.96730
H    -1.33745   1.16702   2.48875
H    -2.65284  -0.01107   2.82187
H    -3.01996   1.48278   1.94978
