46
Generated by autodE on: 2022-06-18. E = -831.476030 Ha. Imaginary frequency = -195.9 cm-1
C    -3.99351   2.52086  -0.07938
N    -3.30445   1.32049   0.34091
C    -2.06649   1.39315   0.92805
O    -1.62864   2.48885   1.35703
C    -1.29522   0.17617   1.03040
C    -0.09729   0.07643   1.90708
O    -1.89915  -0.88369   0.46150
C    -1.47840  -2.04143   0.03403
C    -0.26730  -2.73153   0.57512
C    -2.55426  -2.87017  -0.58518
C    -0.42207  -1.05977  -1.98164
C    -0.15620   0.25654  -1.70876
C    -1.13115   1.32855  -2.14004
C     1.09750   0.72665  -1.13266
C     2.15684  -0.02712  -0.73478
C     3.35394   0.53034  -0.14314
C     4.43724  -0.15045   0.31152
C     4.57194  -1.64671   0.27589
C     5.60926   0.57591   0.90898
H    -4.03269   3.24830   0.74350
H    -3.50937   3.01610  -0.94165
H    -5.02322   2.26569  -0.36485
H    -3.51662   0.46536  -0.15995
H    -0.01523   1.01699   2.46796
H    -0.18777  -0.74995   2.63078
H     0.85088  -0.05674   1.35746
H    -0.50746  -3.19708   1.54925
H     0.01314  -3.54214  -0.11135
H     0.59327  -2.07081   0.70671
H    -2.98898  -3.55770   0.16559
H    -2.14240  -3.49408  -1.39234
H    -3.35829  -2.23743  -0.98581
H    -1.31878  -1.32672  -2.54352
H     0.34119  -1.83260  -1.88292
H    -1.12412   2.18609  -1.45178
H    -2.15763   0.94191  -2.20675
H    -0.85526   1.71507  -3.13811
H     1.16535   1.81052  -0.98079
H     2.11025  -1.11243  -0.86226
H     3.36981   1.62336  -0.05109
H     3.70300  -2.15703  -0.15945
H     5.46730  -1.93969  -0.30090
H     4.72411  -2.04151   1.29631
H     5.79017   0.24364   1.94743
H     5.46338   1.66627   0.91441
H     6.53720   0.35140   0.35221
