49
Generated by autodE on: 2022-06-21. E = -1020.952180 Ha
C     0.02459  -2.77550   1.49282
C     0.48664  -2.71664   0.23529
C     1.03046  -3.92201  -0.47894
C     0.50444  -1.42739  -0.57099
C    -0.75549  -0.53980  -0.38555
C    -1.24893   0.06033  -1.67825
C    -2.46663  -0.07644  -2.23419
C    -2.79426   0.60293  -3.53743
C    -3.59631  -0.87578  -1.64492
C    -0.23474   0.55997   0.53200
C    -1.12527   1.52293   1.20843
C    -2.51936   1.33555   1.21670
C    -3.35303   2.24761   1.86780
C    -2.80859   3.35941   2.51614
C    -1.42175   3.55531   2.51406
C    -0.58799   2.64569   1.86736
N     1.04429   0.61793   0.63585
C     1.65728  -0.43914  -0.16087
C     2.35483   0.17455  -1.40379
C     3.05870   1.48423  -1.20386
O     2.33785  -0.40137  -2.47342
C     2.78612  -1.16291   0.61221
C     2.93607  -0.87806   2.07430
O     3.52986  -1.91632   0.00814
H    -0.38389  -1.90089   2.00652
H     0.04057  -3.71385   2.05522
H     1.05322  -4.81091   0.16827
H     0.41332  -4.14865  -1.36616
H     2.04915  -3.72461  -0.84974
H     0.64398  -1.68518  -1.62627
H    -1.55504  -1.10724   0.10342
H    -0.50835   0.67135  -2.20802
H    -3.65329   1.28624  -3.41437
H    -1.94411   1.18147  -3.92790
H    -3.09475  -0.13632  -4.30070
H    -3.31878  -1.43058  -0.73930
H    -3.97819  -1.59941  -2.38538
H    -4.44361  -0.21329  -1.39493
H    -2.96194   0.47387   0.71895
H    -4.43347   2.08705   1.86762
H    -3.46216   4.07364   3.02254
H    -0.99085   4.42323   3.01861
H     0.49213   2.79506   1.86185
H     2.30782   2.27646  -1.05712
H     3.67217   1.71707  -2.08379
H     3.67823   1.46147  -0.29416
H     1.96537  -0.92592   2.58614
H     3.64863  -1.58658   2.51634
H     3.31277   0.15053   2.19691
