23
Generated by autodE on: 2022-06-21. E = -351.521385 Ha
C     3.72243  -0.66248  -0.05032
C     2.58419   0.06578  -0.05084
C     2.61793   1.57205  -0.09711
C     1.28721  -0.60650  -0.00656
C     0.07750   0.00781  -0.00182
C    -1.18122  -0.70804   0.04261
C    -2.42632  -0.16848   0.05096
C    -3.64496  -1.04602   0.09971
C    -2.71130   1.30609   0.01427
H     4.70578  -0.18519  -0.08340
H     3.69483  -1.75606  -0.01696
H     2.11825   2.00810   0.78390
H     2.08333   1.95426  -0.98261
H     3.65084   1.94637  -0.12901
H     1.31657  -1.70235   0.02505
H     0.03937   1.10016  -0.03300
H    -1.10378  -1.80165   0.07246
H    -4.25847  -0.81454   0.98903
H    -3.38713  -2.11500   0.12331
H    -4.29495  -0.86222  -0.77469
H    -3.30204   1.60288   0.89892
H    -1.80842   1.92931  -0.01878
H    -3.33253   1.55339  -0.86470
