26
Generated by autodE on: 2022-06-21. E = -669.377002 Ha
C    -2.28900  -1.92786  -1.24924
C    -2.69337  -1.33303   0.08499
O    -3.79434  -1.60166   0.58379
C    -1.73666  -0.45306   0.72474
N    -0.55814  -0.22990   0.09240
C     0.48966   0.04878  -0.32470
C     1.76270   0.40012  -0.82850
C     2.25714  -0.20665  -2.00206
C     3.51488   0.16146  -2.47190
C     4.27570   1.11562  -1.78575
C     3.77983   1.71225  -0.62036
C     2.52357   1.36411  -0.13248
C    -1.85500   0.25644   1.99107
C    -3.11910   0.09820   2.79772
O    -0.93310   0.97826   2.39869
H    -1.36219  -2.51605  -1.15302
H    -2.09547  -1.13423  -1.98895
H    -3.09654  -2.57602  -1.61305
H     1.65434  -0.95071  -2.52444
H     3.90606  -0.30140  -3.38001
H     5.26185   1.39608  -2.16180
H     4.37621   2.45597  -0.08818
H     2.11996   1.81913   0.77312
H    -3.02870   0.70445   3.70921
H    -3.99754   0.41710   2.21742
H    -3.28603  -0.95683   3.06123
