49
Generated by autodE on: 2022-06-21. E = -1020.887520 Ha. Imaginary frequency = -455.5 cm-1
C    -0.13245  -3.05616   1.33410
C     0.44545  -2.95117   0.11456
C     1.41032  -3.99431  -0.39253
C     0.18896  -1.83408  -0.78696
C    -0.84586  -0.89883  -0.62487
C    -1.23957  -0.03931  -1.75353
C    -2.42417   0.58612  -1.92827
C    -2.64863   1.47922  -3.11707
C    -3.59563   0.47892  -0.99367
C    -0.06671   0.49418   0.67863
C    -1.09196   1.42564   1.10294
C    -2.05678   1.04086   2.04781
C    -3.05881   1.94036   2.40973
C    -3.12405   3.20016   1.80367
C    -2.17534   3.57196   0.84389
C    -1.15245   2.69148   0.49356
N     1.14358   0.39223   0.77198
C     2.11977  -0.28283   0.11809
C     2.37792   0.18339  -1.25431
C     3.41766  -0.51853  -2.08900
O     1.74370   1.13671  -1.71903
C     2.98967  -1.15289   0.90769
C     2.69952  -1.22906   2.38597
O     3.89632  -1.82568   0.40623
H    -0.81962  -2.29954   1.72074
H     0.08169  -3.90960   1.98238
H     1.55139  -4.80411   0.33737
H     1.04660  -4.43441  -1.33634
H     2.39200  -3.54456  -0.60564
H     0.73239  -1.84055  -1.73413
H    -1.62997  -1.16300   0.08988
H    -0.46011   0.12294  -2.50334
H    -2.88866   2.50577  -2.78578
H    -1.76744   1.52587  -3.77379
H    -3.51356   1.13811  -3.71318
H    -3.44323  -0.23723  -0.17717
H    -4.49935   0.17887  -1.55254
H    -3.81949   1.46195  -0.54521
H    -2.01207   0.04454   2.49149
H    -3.80166   1.65226   3.15639
H    -3.92156   3.89458   2.07733
H    -2.23150   4.55328   0.36799
H    -0.40478   2.96021  -0.25430
H     3.19226  -1.59105  -2.17925
H     3.43452  -0.05324  -3.08366
H     4.40933  -0.44267  -1.61982
H     1.68802  -1.64353   2.53764
H     3.43659  -1.88387   2.86835
H     2.71997  -0.23123   2.84923
