57
Generated by autodE on: 2022-06-07. E = -1814.344602 Ha
C    -3.24712  -1.81827   2.88259
N    -2.57053  -1.29306   1.71469
C    -1.70556  -0.28065   1.83359
O    -1.63049   0.43328   2.83610
C    -0.82960   0.02597   0.58051
C    -1.64818   0.37398  -0.69053
O    -1.17697   0.14962  -1.80828
N    -2.82103   0.99213  -0.49902
C    -3.54828   1.58638  -1.60592
C     0.13399   1.21677   0.90474
C    -0.39700   2.60239   0.60868
C    -1.05520   3.32328   1.61449
C    -1.60936   4.57633   1.34058
C    -1.50667   5.12565   0.05891
C    -0.84085   4.41600  -0.94535
C    -0.28860   3.16218  -0.67222
N     1.34969   0.91610   0.13700
C     2.57543   1.37493   0.78553
N     1.31047  -0.46887  -0.12031
C     2.49473  -1.06499  -0.66433
C     2.83070  -0.81136  -1.99583
C     3.99564  -1.38053  -2.51113
C     4.80298  -2.18600  -1.69951
C     4.45181  -2.42576  -0.36724
C     3.29207  -1.85830   0.16612
C     0.17061  -1.05453   0.17571
Cl    0.53715  -2.22330   2.40358
C    -0.31202  -2.36093  -0.41894
O    -1.53413  -2.56538  -0.47810
N     0.56824  -3.23403  -0.91408
C     0.12864  -4.50512  -1.45957
H    -3.99473  -2.55632   2.56489
H    -2.52683  -2.30652   3.56211
H    -3.75339  -1.01388   3.43430
H    -2.43182  -1.90225   0.90292
H    -3.07997   1.27047   0.44254
H    -3.01699   2.46604  -2.00640
H    -3.67070   0.85575  -2.41731
H    -4.53896   1.89827  -1.25340
H     0.34918   1.13506   1.98007
H    -1.14529   2.88892   2.61039
H    -2.12176   5.12646   2.13340
H    -1.94016   6.10538  -0.15547
H    -0.75111   4.83919  -1.94863
H     0.22112   2.60764  -1.45969
H     2.74567   0.87720   1.75661
H     2.45998   2.45416   0.94929
H     3.44119   1.22124   0.12993
H     2.17570  -0.19366  -2.61134
H     4.27048  -1.20020  -3.55225
H     5.71134  -2.63179  -2.11045
H     5.08337  -3.05489   0.26312
H     2.97355  -2.03914   1.19438
H     1.56208  -3.07909  -0.79024
H     1.00027  -5.02636  -1.87244
H    -0.33186  -5.13424  -0.68053
H    -0.61122  -4.35134  -2.25836
