27
Generated by autodE on: 2022-06-07. E = -1162.616644 Ha
C     3.92996  -1.92355   0.08961
N     3.02224  -0.79981   0.21683
C     1.69453  -0.97416   0.17394
O     1.16660  -2.07918   0.01230
C     0.83425   0.25944   0.31899
Cl    1.60540   1.66321   1.03360
C    -0.46548   0.27540  -0.02301
C    -1.35578   1.48703   0.14582
O    -1.03026   2.60070  -0.26770
N    -2.52049   1.23095   0.76377
C    -3.51691   2.26480   0.96332
C    -1.16689  -0.94838  -0.57025
O    -1.97988  -1.55316   0.13780
N    -0.94993  -1.21332  -1.86702
C    -1.45418  -2.42520  -2.48463
H     3.76335  -2.65943   0.89192
H     3.79054  -2.43585  -0.87506
H     4.96009  -1.55423   0.15212
H     3.39937   0.12860   0.37481
H    -2.73006   0.26269   0.99915
H    -3.90786   2.63772   0.00253
H    -4.34689   1.84937   1.54713
H    -3.08956   3.11948   1.50936
H    -0.17029  -0.73785  -2.31261
H    -0.85961  -3.30426  -2.18220
H    -2.49685  -2.59126  -2.18343
H    -1.40853  -2.32232  -3.57605
