30
Generated by autodE on: 2022-06-07. E = -651.665209 Ha
C     0.48812  -2.60396   0.51060
N    -0.15078  -1.28078   0.26392
C    -1.34358  -1.31930  -0.31719
C    -2.17823  -0.21791  -0.73752
C    -1.89134   1.15800  -0.56338
C    -2.76870   2.12872  -1.04996
C    -3.94974   1.76658  -1.70460
C    -4.25370   0.40878  -1.87471
C    -3.38417  -0.56661  -1.39932
N     0.37937  -0.15394   0.72567
C     1.75031  -0.04497   0.84535
C     2.70928  -0.66815   0.00624
C     4.07333  -0.42727   0.17861
C     4.53277   0.44471   1.17137
C     3.59495   1.08987   1.98998
C     2.23248   0.85478   1.83019
H     1.20341  -2.50755   1.33271
H     0.99762  -2.96577  -0.38997
H    -0.29860  -3.31324   0.79054
H    -1.71924  -2.32498  -0.50166
H    -0.98158   1.43906  -0.04004
H    -2.52734   3.18526  -0.90831
H    -4.63235   2.53417  -2.07660
H    -5.17494   0.11257  -2.38217
H    -3.62487  -1.62369  -1.53804
H     2.38341  -1.31618  -0.80739
H     4.78728  -0.92125  -0.48627
H     5.60180   0.62884   1.29848
H     3.93204   1.78298   2.76551
H     1.50275   1.35621   2.47010
