57
Generated by autodE on: 2022-06-07. E = -1814.267806 Ha. Imaginary frequency = -326.5 cm-1
C    -2.78918  -2.15049   3.99233
N    -2.32055  -1.84390   2.65661
C    -1.31534  -0.97519   2.43351
O    -0.72499  -0.42137   3.37125
C    -1.01878  -0.76703   0.96529
C    -2.06719  -0.20114   0.09659
O    -2.05383  -0.35324  -1.14080
N    -3.08316   0.52912   0.64013
C    -3.20861   1.12530   1.95775
C     0.44292   1.37581   0.89480
C    -0.10411   1.99324  -0.30461
C    -1.18025   2.88654  -0.12199
C    -1.76247   3.53708  -1.20857
C    -1.26676   3.32576  -2.49813
C    -0.17340   2.47144  -2.68853
C     0.39957   1.80403  -1.60935
N     1.46720   0.53080   0.95923
C     2.12834   0.32909   2.26662
N     1.53854  -0.42198   0.01138
C     2.83090  -0.89951  -0.28151
C     3.91868   0.00268  -0.27232
C     5.19765  -0.41583  -0.63580
C     5.43006  -1.73871  -1.02574
C     4.35715  -2.63387  -1.04446
C     3.07203  -2.22901  -0.67743
C     0.00235  -1.56677   0.37816
Cl    0.71200  -2.78633   1.49834
C    -0.29615  -2.24543  -0.97002
O    -1.03378  -3.23266  -0.97373
N     0.29844  -1.74969  -2.06092
C    -0.11084  -2.15995  -3.38610
H    -3.00934  -1.22497   4.54630
H    -2.03728  -2.71856   4.56558
H    -3.70545  -2.74972   3.92111
H    -2.72321  -2.32782   1.86094
H    -3.69089   0.90766  -0.08005
H    -2.23123   1.39275   2.37640
H    -3.79898   2.04647   1.86319
H    -3.72181   0.46557   2.67465
H     0.18561   1.84619   1.84513
H    -1.55353   3.06804   0.88676
H    -2.60286   4.21565  -1.04647
H    -1.72268   3.83171  -3.35219
H     0.23287   2.31873  -3.69088
H     1.25555   1.15204  -1.77269
H     2.89786  -0.44062   2.16628
H     1.37065   0.00958   2.99372
H     2.59137   1.27070   2.58736
H     3.74838   1.04294   0.00865
H     6.01823   0.30588  -0.62028
H     6.43175  -2.06565  -1.31269
H     4.51623  -3.67282  -1.34375
H     2.26788  -2.95786  -0.69216
H     0.77569  -0.86279  -1.94081
H     0.59227  -1.75180  -4.12336
H    -1.12644  -1.79485  -3.62021
H    -0.11301  -3.25629  -3.46477
