39
Generated by autodE on: 2022-06-10. E = -661.311033 Ha
C     1.89133  -3.69223   0.55382
C     0.75749  -2.75801   1.01478
C    -0.40347  -3.59384   1.57671
C     0.32943  -1.88965  -0.09177
C     0.21554  -0.89208  -0.77390
C     0.40247   0.49939  -1.20613
C     0.71412   0.58151  -2.71438
C    -0.81716   1.37186  -0.86736
C    -0.80232   2.73968  -1.19153
C    -1.88803   3.56316  -0.88730
C    -3.01745   3.03563  -0.25136
C    -3.04465   1.67854   0.07579
C    -1.95343   0.85672  -0.22912
C     1.65004   0.97210  -0.38301
C     1.61619   0.69603   1.13475
C     2.22184  -0.63838   1.65904
C     1.26605  -1.76445   2.10727
H     2.22921  -4.31566   1.39685
H     2.75371  -3.12291   0.17630
H     1.54517  -4.35891  -0.25100
H    -0.77158  -4.31093   0.82652
H    -0.06811  -4.16206   2.45888
H    -1.24348  -2.95034   1.88059
H    -0.15879   0.27464  -3.31003
H     1.55693  -0.08032  -2.96442
H     0.98783   1.60672  -3.00287
H     0.06904   3.17328  -1.68638
H    -1.85136   4.62370  -1.14863
H    -3.86769   3.67913  -0.01294
H    -3.91892   1.25118   0.57326
H    -1.98562  -0.20158   0.03397
H     1.76506   2.05350  -0.55748
H     2.53975   0.49039  -0.82105
H     0.58401   0.81060   1.50849
H     2.18629   1.51157   1.60717
H     2.94287  -1.03022   0.92155
H     2.82701  -0.38659   2.54461
H     1.76532  -2.37321   2.88054
H     0.38507  -1.30950   2.59084
