72
Generated by autodE on: 2022-06-10. E = -1410.345170 Ha. Imaginary frequency = -433.9 cm-1
C    -3.60429   8.87074  -3.24966
C    -3.57822   8.65390  -1.74764
O    -3.60398   9.66567  -1.02582
C    -3.41427   7.30468  -1.19313
C    -3.08711   6.14234  -2.06489
C    -3.83508   5.82012  -3.21606
C    -3.51384   4.71794  -4.00864
C    -2.43430   3.89298  -3.67889
C    -1.67453   4.19673  -2.54669
C    -1.99053   5.30508  -1.75853
N    -2.93234   7.18548   0.09168
C    -3.29678   7.95026   1.15716
C    -2.71292   7.54337   2.45701
C    -2.62295   6.19314   2.84253
C    -2.08014   5.84207   4.07812
C    -1.62768   6.83530   4.95549
C    -1.70991   8.17976   4.58035
C    -2.24412   8.53048   3.33893
C    -5.31140   7.85030   1.15725
C    -5.76494   7.45000   0.04795
C    -6.86374   6.98314  -0.84293
C    -6.93094   7.80405  -2.13977
C    -6.64594   5.49045  -1.16640
C    -8.23206   7.08176  -0.10357
C    -8.78447   8.47611   0.19726
C    -7.90219   9.37091   1.07864
C    -7.40744   8.66321   2.34917
C    -5.86990   8.39026   2.47408
C    -5.72804   7.32592   3.58324
C    -5.21373   9.72229   2.86497
C    -4.87756  10.67258   1.88790
C    -4.31868  11.90498   2.23783
C    -4.09531  12.22219   3.58075
C    -4.44543  11.29437   4.56588
C    -4.99739  10.06083   4.21017
H    -4.59153   8.65075  -3.67916
H    -2.86702   8.25038  -3.77723
H    -3.39092   9.93342  -3.42654
H    -4.70018   6.41813  -3.48951
H    -4.12422   4.49768  -4.88777
H    -2.18687   3.02791  -4.29826
H    -0.81628   3.57636  -2.27714
H    -1.34607   5.53117  -0.90701
H    -2.67592   6.23171   0.33482
H    -3.30476   9.01738   0.96310
H    -3.01397   5.40731   2.19062
H    -2.02416   4.78980   4.36651
H    -1.21293   6.56031   5.92814
H    -1.35631   8.96096   5.25734
H    -2.30647   9.57991   3.04716
H    -7.85303   7.56119  -2.69103
H    -6.92108   8.88502  -1.93906
H    -6.08269   7.57549  -2.79151
H    -5.66804   5.31571  -1.62895
H    -6.70262   4.88611  -0.24755
H    -7.42572   5.13554  -1.85925
H    -8.15848   6.49621   0.82590
H    -8.96479   6.55199  -0.73596
H    -9.00814   9.00270  -0.74512
H    -9.75782   8.33513   0.69991
H    -8.48118  10.26794   1.35098
H    -7.05115   9.73724   0.48891
H    -7.68595   9.23916   3.24460
H    -7.91956   7.69488   2.45306
H    -6.05840   6.35028   3.19863
H    -4.70261   7.22291   3.95050
H    -6.37110   7.57970   4.43931
H    -5.02035  10.43675   0.83374
H    -4.05233  12.61758   1.45309
H    -3.65405  13.18290   3.85693
H    -4.27932  11.52594   5.62102
H    -5.24647   9.35264   5.00015
