20
Generated by autodE on: 2022-06-24. E = -457.715315 Ha
C    -3.07376  -0.75108   0.29260
N    -1.82626  -0.02608   0.11601
C    -1.85894   1.32892  -0.23693
C    -0.74706   2.04301  -0.47354
C     0.64227   1.46153  -0.38025
C     0.57678  -0.01356  -0.01942
C     1.79782  -0.82320   0.11818
N     2.97132  -0.17008  -0.07562
O     1.78908  -2.04049   0.39326
C    -0.61368  -0.64166   0.19518
H    -3.63576  -0.82114  -0.65388
H    -2.85588  -1.76656   0.64633
H    -3.71265  -0.25074   1.03718
H    -2.85886   1.76149  -0.30458
H    -0.85353   3.09695  -0.74051
H     1.24045   2.02593   0.36469
H     1.18275   1.61140  -1.33721
H     3.01975   0.82008  -0.27900
H     3.83731  -0.68901   0.01991
H    -0.63053  -1.70217   0.45115
