24
Generated by autodE on: 2022-06-24. E = -816.694999 Ha
C     4.91619  -0.06841  -0.27567
O     3.49796  -0.33712  -0.23243
C     2.70425   0.71122  -0.09596
O     3.02487   1.87623  -0.00615
C     1.31409   0.31054  -0.05928
N     0.16825   0.09459  -0.00834
C    -1.12947  -0.16162   0.04847
C    -1.56948  -1.55471  -0.05315
O    -2.72653  -1.93258  -0.00771
O    -0.52602  -2.39076  -0.20640
C    -0.83565  -3.78479  -0.31925
C    -2.05314   0.96329   0.21165
O    -3.26632   0.87535   0.27621
O    -1.39258   2.13359   0.28377
C    -2.19209   3.31086   0.44728
H     5.39641  -1.04647  -0.38400
H     5.14987   0.57542  -1.13472
H     5.23392   0.41903   0.65631
H    -1.47268  -3.97116  -1.19631
H    -1.34866  -4.14322   0.58522
H     0.12582  -4.29833  -0.43607
H    -1.48826   4.15077   0.47956
H    -2.76659   3.26280   1.38401
H    -2.88517   3.43020  -0.39836
