44
Generated by autodE on: 2022-06-24. E = -1274.415817 Ha. Imaginary frequency = -338.2 cm-1
C     1.15293   4.71887   0.83452
O     0.48310   3.45130   0.99876
C     0.44848   2.66056  -0.05773
O     0.91787   2.88589  -1.15017
C    -0.18572   1.35958   0.25678
N    -1.13570   0.74493  -0.13170
C    -1.91231  -0.35861  -0.03133
C    -2.72297  -0.44940   1.16969
O    -2.71761   0.39222   2.06390
O    -3.48137  -1.56226   1.22827
C    -4.26718  -1.73177   2.41168
C    -1.84447  -1.31533  -1.12470
O    -2.52303  -2.32275  -1.27206
O    -0.84443  -0.98545  -1.97650
C    -0.54139  -1.90891  -3.02307
C     0.57817  -0.89464   1.73794
C     1.11526   0.37590   1.73582
C     2.44103   0.59030   1.03519
C     2.44632  -0.24971  -0.22773
C     3.14414   0.13310  -1.47533
N     3.90635   1.24807  -1.42748
O     3.04750  -0.53400  -2.52195
C     1.77673  -1.43039  -0.22651
N     0.99008  -1.83758   0.83186
C     0.28975  -3.11744   0.78827
H     0.64408   5.31750   0.06673
H     2.20013   4.55101   0.54653
H     1.09468   5.21298   1.80990
H    -4.80229  -2.68042   2.28367
H    -4.98615  -0.90716   2.52729
H    -3.62611  -1.77917   3.30463
H    -1.35737  -1.94958  -3.76058
H    -0.37121  -2.91661  -2.61657
H     0.37670  -1.53431  -3.49137
H    -0.22058  -1.19713   2.41569
H     0.82448   1.05314   2.54132
H     2.59160   1.65925   0.82563
H     3.27797   0.30682   1.70384
H     3.96988   1.83277  -0.60396
H     4.35453   1.56517  -2.28077
H     1.81109  -2.10496  -1.08119
H     0.66179  -3.70828  -0.05646
H     0.46422  -3.67619   1.71894
H    -0.79279  -2.95716   0.67417
