40
Generated by autodE on: 2022-06-19. E = -1023.771515 Ha
C     4.12306  -2.27308  -2.17056
N     3.13653  -2.11456  -1.11875
C     2.54317  -0.93785  -0.87469
O     2.81681   0.09497  -1.50170
C     1.46758  -0.94144   0.21645
C     0.05572  -0.96104  -0.38936
C    -0.98950  -1.47029   0.61608
C    -2.36688  -0.93421   0.31388
C    -3.59054  -1.55031   0.85164
N    -3.42208  -2.60969   1.68303
O    -4.73708  -1.14212   0.57784
C    -2.51570   0.19455  -0.43362
N    -1.50026   0.89607  -1.00885
C    -1.73765   2.17575  -1.65803
C    -0.14097   0.51228  -0.77253
C     0.61311   1.29153   0.40642
C     1.35046   2.44802  -0.15351
N     1.94696   3.35000  -0.57210
C    -0.35078   1.81291   1.40464
N    -1.11426   2.17818   2.19685
N     1.46220   0.28131   1.01055
C     2.68189   0.70052   1.67312
H     3.70770  -1.98409  -3.14867
H     5.01023  -1.64813  -1.98149
H     4.43352  -3.32380  -2.21331
H     2.87952  -2.91825  -0.55506
H     1.62076  -1.80664   0.87945
H     0.01887  -1.56920  -1.30327
H    -0.97659  -2.57105   0.58065
H    -0.68467  -1.19110   1.63972
H    -2.51055  -2.92724   1.98636
H    -4.24482  -3.03143   2.09968
H    -3.51682   0.58489  -0.62514
H    -1.52474   3.02572  -0.98558
H    -1.09372   2.27049  -2.54533
H    -2.78709   2.23891  -1.97372
H     0.44682   0.72592  -1.67261
H     3.45270   1.07596   0.97490
H     2.45651   1.49261   2.40324
H     3.09915  -0.15693   2.22095
