20
Generated by autodE on: 2022-06-19. E = -457.715334 Ha
C     3.02861  -0.77977   0.55376
N     1.77486  -0.05117   0.44852
C     1.77723   1.34540   0.55692
C     0.67529   2.08871   0.36942
C    -0.67029   1.49690   0.02912
C    -0.56396  -0.01188  -0.11988
C    -1.73130  -0.82819  -0.48993
N    -2.89477  -0.15549  -0.67683
O    -1.68643  -2.06696  -0.63415
C     0.61277  -0.66639   0.09033
H     2.82096  -1.85669   0.58788
H     3.56110  -0.49736   1.47473
H     3.69017  -0.57559  -0.30550
H     2.74440   1.78494   0.80773
H     0.75529   3.17290   0.47674
H    -1.41302   1.76681   0.80829
H    -1.06552   1.95822  -0.89851
H    -3.72385  -0.68234  -0.92860
H    -2.97571   0.84591  -0.55469
H     0.66051  -1.75072  -0.02298
