20
Generated by autodE on: 2022-06-19. E = -566.000305 Ha
C     4.30335  -0.45701   0.32307
N     2.95669   0.06052   0.44822
C     1.90194  -0.59873  -0.07711
O     2.03873  -1.67068  -0.68381
C     0.62664   0.11244   0.16875
N    -0.57588  -0.23665  -0.22539
C    -0.83182  -1.46222  -1.01552
C    -1.70604   0.52263   0.06879
C    -1.59002   1.71003   0.81473
N    -1.48992   2.69576   1.43533
C    -2.97670   0.11214  -0.37359
N    -4.04892  -0.19647  -0.72398
H     4.59653  -0.54959  -0.73493
H     4.38991  -1.45365   0.78438
H     4.99453   0.22975   0.82548
H     2.80885   0.93614   0.93995
H     0.68641   1.03893   0.74132
H    -1.31164  -1.17061  -1.95782
H    -1.50915  -2.10706  -0.44190
H     0.11741  -1.96482  -1.20094
