20
Generated by autodE on: 2022-07-27. E = -565.999003 Ha
C     2.84702  -1.73868  -2.18542
N     2.22701  -1.59827  -0.88317
C     1.00756  -1.04567  -0.73929
O     0.34725  -0.60189  -1.68675
C     0.48119  -1.10334   0.64465
N    -0.48653  -0.35133   1.11660
C    -1.14931  -0.77948   2.36889
C    -0.94174   0.84417   0.57145
C    -0.12767   1.64849  -0.24792
N     0.53140   2.37551  -0.88283
C    -2.19166   1.35894   0.96868
N    -3.22467   1.81453   1.27332
H     2.81547  -0.78376  -2.73061
H     3.89245  -2.04092  -2.05165
H     2.33339  -2.49731  -2.79935
H     2.69233  -1.98452  -0.06689
H     0.83127  -1.90221   1.29871
H    -1.07828   0.02599   3.10998
H    -2.20452  -0.99022   2.15107
H    -0.66464  -1.68860   2.73616
