65
Generated by autodE on: 2022-06-15. E = -1679.755437 Ha
C   -11.31256 -15.39446 -26.72603
N   -10.32970 -14.53866 -26.09006
C   -10.42509 -14.21464 -24.79708
O   -11.36420 -14.57966 -24.08333
C    -9.33611 -13.25535 -24.21634
C    -7.94420 -13.49862 -24.84388
O    -7.75018 -13.57681 -26.04291
O    -6.96842 -13.54063 -23.95155
C    -5.62066 -13.64098 -24.44159
C    -9.71808 -11.82343 -24.69597
C   -11.15731 -11.39411 -24.42648
C   -11.51200 -11.28667 -22.94236
C   -10.46313 -10.45299 -22.19606
C    -9.40445 -11.18995 -21.27458
C    -8.05876 -10.45776 -21.44473
C    -6.87035 -11.13415 -21.74927
C    -5.67507 -10.43752 -21.95753
C    -5.64263  -9.04605 -21.85348
C    -6.82073  -8.35740 -21.54420
C    -8.01361  -9.05494 -21.34875
C    -9.99046 -11.06637 -19.84234
C    -9.39132 -10.31534 -18.82455
C    -9.98996 -10.20920 -17.56391
C   -11.19911 -10.85286 -17.29804
C   -11.81005 -11.60311 -18.30840
C   -11.21287 -11.70546 -19.56374
C    -9.21886 -12.68229 -21.57752
C    -9.25464 -13.48609 -22.71796
C    -9.02965 -14.81087 -22.22520
C    -8.92031 -16.00200 -23.00052
N    -8.81051 -16.94888 -23.66586
N    -8.85910 -14.84727 -20.91159
N    -8.96206 -13.56769 -20.53241
C    -8.57991 -13.34695 -19.15622
O    -9.14484 -13.88118 -18.23988
O    -7.49307 -12.60970 -19.10173
C    -6.96213 -12.32510 -17.79337
H   -11.06259 -15.49165 -27.78942
H   -12.32365 -14.96926 -26.63444
H   -11.32273 -16.39727 -26.26905
H    -9.49624 -14.24212 -26.59419
H    -4.98142 -13.65278 -23.55206
H    -5.49530 -14.56798 -25.01793
H    -5.38465 -12.77378 -25.07378
H    -9.53440 -11.79616 -25.77792
H    -9.00407 -11.11935 -24.24384
H   -11.28226 -10.40164 -24.89134
H   -11.86139 -12.06503 -24.94224
H   -11.62423 -12.28920 -22.50734
H   -12.49672 -10.80435 -22.84775
H   -10.96222  -9.72211 -21.54879
H    -9.91271  -9.85389 -22.93112
H    -6.86389 -12.21786 -21.83929
H    -4.76796 -10.99442 -22.20519
H    -4.70998  -8.50027 -22.01440
H    -6.81361  -7.26810 -21.45869
H    -8.92070  -8.49597 -21.11391
H    -8.43444  -9.82483 -18.99564
H    -9.49505  -9.62484 -16.78468
H   -11.66163 -10.77453 -16.31151
H   -12.75454 -12.11772 -18.11698
H   -11.69940 -12.30654 -20.33319
H    -7.73919 -11.88045 -17.15861
H    -6.14341 -11.61652 -17.95647
H    -6.58841 -13.25333 -17.33960
