52
Generated by autodE on: 2022-06-24. E = -1242.868499 Ha. Imaginary frequency = -400.3 cm-1
C     4.42909   1.84404   1.20797
O     3.10768   1.40269   0.86116
C     2.93705   0.91746  -0.36625
O     3.84645   0.83789  -1.17771
C     1.58307   0.39292  -0.70244
C     1.49968  -1.44101  -0.19444
N     2.22945  -1.59306   1.01980
C     3.65943  -1.84642   0.93076
C     1.57447  -2.01425   2.16724
C     0.24293  -2.17163   2.25401
C    -0.65818  -1.87027   1.08977
C     0.10996  -1.82546  -0.21581
C    -0.49154  -2.46015  -1.37600
N     0.23209  -2.56053  -2.54208
O    -1.64167  -2.96150  -1.33765
C    -0.74046   0.70181  -0.89488
C    -0.78464   0.35299  -2.34094
C    -2.10650  -0.07548  -2.92924
O     0.19563   0.42910  -3.09114
C    -2.03845   1.13643  -0.30385
C    -2.27970   2.50481  -0.08193
C    -3.50642   2.93677   0.42344
C    -4.51327   2.00921   0.71097
C    -4.28631   0.64923   0.48288
C    -3.05990   0.21374  -0.02445
N     0.41525   1.00019  -0.24376
C     0.37578   1.46104   1.15866
H     4.75655   2.64671   0.53236
H     5.13768   1.00556   1.15298
H     4.35931   2.21613   2.23634
H     1.55229   0.26570  -1.77795
H     2.09090  -1.81087  -1.03659
H     4.09218  -1.31416   0.07649
H     4.16286  -1.49398   1.84293
H     3.88239  -2.92345   0.80505
H     2.23681  -2.21249   3.01371
H    -0.19752  -2.49096   3.20101
H    -1.45227  -2.62673   1.00196
H    -1.19703  -0.92356   1.28207
H     0.98250  -1.90217  -2.72330
H    -0.32921  -2.77996  -3.35997
H    -2.89367   0.67423  -2.77090
H    -1.95741  -0.23262  -4.00505
H    -2.44605  -1.01877  -2.47269
H    -1.49947   3.23328  -0.31190
H    -3.67774   4.00297   0.58863
H    -5.47386   2.34725   1.10651
H    -5.06898  -0.08163   0.69871
H    -2.89744  -0.84633  -0.21274
H    -0.64817   1.43494   1.53320
H     0.99659   0.80200   1.77105
H     0.76170   2.48570   1.23084
