38
Generated by autodE on: 2022-10-07. E = -1179.894856 Ha
C     4.75080   0.02331  -1.60496
N     3.34930  -0.08621  -1.26177
C     2.90106   0.03425  -0.00210
O     3.62387   0.29159   0.96849
C     1.42309  -0.17048   0.16847
N     0.70182  -0.70911  -0.73909
C    -0.69767  -0.71398  -0.26656
C    -1.44761  -1.99379  -0.67226
C    -0.86771  -2.83043  -1.77425
O    -2.53500  -2.23585  -0.17171
C    -1.44832   0.47050  -0.90275
C    -2.75895   0.76689  -0.49364
C    -3.44761   1.85162  -1.03777
C    -2.83785   2.66287  -2.00129
C    -1.53564   2.37453  -2.41427
C    -0.84530   1.28624  -1.86989
C    -0.59541  -0.55532   1.27705
C    -0.39022  -1.89352   2.01857
O    -0.05000  -2.90072   1.34039
O    -0.53710  -1.85826   3.26681
C     0.68749   0.29144   1.39440
C     0.44157   1.83348   1.32098
O    -0.51455   2.28680   1.99064
O     1.23657   2.49439   0.60238
H     5.20983   0.85590  -1.05310
H     5.30935  -0.89607  -1.35846
H     4.84738   0.21297  -2.68143
H     2.67242  -0.37038  -1.96411
H     0.12203  -3.20281  -1.47706
H    -0.72396  -2.20913  -2.67262
H    -1.54063  -3.66838  -1.99958
H    -3.24263   0.13840   0.25437
H    -4.46507   2.06762  -0.70274
H    -3.37478   3.51556  -2.42373
H    -1.04585   3.00182  -3.16316
H     0.17599   1.08218  -2.18915
H    -1.44596  -0.02614   1.71800
H     1.24053   0.09724   2.32541
