10
Generated by autodE on: 2022-10-07. E = -455.051689 Ha
O     2.33023  -0.64953  -0.84170
C     1.96990   0.14505   0.06990
O     2.73946   0.82488   0.80519
C     0.48703   0.32122   0.32994
C    -0.48681  -0.32066  -0.33025
C    -1.96978  -0.14514  -0.06980
O    -2.33067   0.65016   0.84095
O    -2.73930  -0.82590  -0.80427
H     0.21901   1.02849   1.12221
H    -0.21872  -1.02796  -1.12250
