38
Generated by autodE on: 2022-10-07. E = -1179.809522 Ha. Imaginary frequency = -327.8 cm-1
C     4.78785   0.97930  -1.00478
N     3.36269   0.70799  -0.95632
C     2.89414  -0.52194  -0.68497
O     3.54748  -1.56628  -0.64704
C     1.44790  -0.54600  -0.36355
N     0.41116  -0.80687  -0.92132
C    -0.91857  -0.81479  -0.78058
C    -1.52153  -2.12813  -0.49622
C    -0.57348  -3.28812  -0.30819
O    -2.73747  -2.27532  -0.36343
C    -1.65105   0.38926  -1.21170
C    -3.00545   0.59549  -0.87485
C    -3.65421   1.77310  -1.24894
C    -2.97842   2.76796  -1.96288
C    -1.63422   2.57400  -2.29723
C    -0.97747   1.40066  -1.92800
C    -0.47185   0.08253   1.64728
C    -1.32165  -0.96648   2.30615
O    -0.76231  -2.01878   2.73355
O    -2.55918  -0.71552   2.38868
C     0.90632   0.07914   1.65726
C     1.72783   1.34023   1.45603
O     2.79599   1.42110   2.11027
O     1.31738   2.18566   0.60298
H     5.31336   0.14159  -1.48004
H     4.96681   1.89096  -1.58937
H     5.19282   1.12310   0.01118
H     2.73350   1.48467  -0.72742
H     0.06875  -3.09751   0.56532
H     0.08176  -3.42060  -1.18220
H    -1.15765  -4.20072  -0.13476
H    -3.52949  -0.15632  -0.29198
H    -4.70128   1.91653  -0.97032
H    -3.49313   3.68685  -2.25307
H    -1.09068   3.34150  -2.85372
H     0.06965   1.26366  -2.20261
H    -0.99221   0.97688   1.30037
H     1.41120  -0.72901   2.19558
