28
Generated by autodE on: 2022-12-30. E = -595.568184 Ha
C     3.64495  -0.53121   0.94161
N     2.35778  -0.11634   0.42831
C     1.35635  -1.00571   0.21647
O     1.52130  -2.22488   0.42603
C     0.08167  -0.47905  -0.27600
C    -0.34726   0.81114  -0.37850
O     0.39125   1.89532  -0.09323
C    -0.17864   3.19408  -0.27837
C    -1.83551   0.79578  -0.67127
C    -2.50762   0.31370   0.66038
C    -2.05238  -1.17139   0.76745
C    -1.15207  -1.34512  -0.49534
C    -1.92544  -0.48967  -1.51874
H     3.56956  -0.94723   1.96103
H     4.31492   0.33746   0.96951
H     4.10052  -1.30424   0.30231
H     2.15986   0.87109   0.30253
H     0.59961   3.91142   0.00957
H    -1.06037   3.33302   0.36498
H    -0.45454   3.35580  -1.33148
H    -2.26007   1.71452  -1.08983
H    -3.60057   0.39654   0.56884
H    -2.19418   0.92757   1.51677
H    -1.49260  -1.38503   1.68911
H    -2.91417  -1.85507   0.72830
H    -0.93812  -2.38668  -0.76342
H    -2.96350  -0.82118  -1.67485
H    -1.41055  -0.40273  -2.48665
