29
Generated by autodE on: 2023-01-01. E = -915.223279 Ha
C     0.84093   1.83513   3.75178
O     0.46218   1.10794   2.57139
C     0.74579   1.68291   1.40590
O     1.27120   2.77157   1.27650
C     0.34333   0.84299   0.25201
O    -0.08963  -0.33083   0.55637
C    -0.67196  -1.32643  -0.10725
C    -0.75394  -2.55007   0.70458
C    -0.16749  -2.49259   2.09334
O    -1.25432  -3.57738   0.25370
C    -1.39586  -1.03182  -1.34299
C    -2.15246  -2.12450  -2.03960
O    -1.43718   0.13292  -1.75112
C     0.65502   1.30113  -1.13574
O     0.48592   2.43320  -1.52808
O     1.25702   0.32909  -1.81418
C     1.57262   0.60224  -3.19034
H     0.31485   2.79977   3.78816
H     0.54486   1.20589   4.59819
H     1.92669   2.00703   3.76184
H     0.91552  -2.29741   2.04511
H    -0.34850  -3.45237   2.59291
H    -0.61503  -1.67124   2.67342
H    -2.64059  -1.69691  -2.92490
H    -2.90153  -2.57321  -1.37118
H    -1.46575  -2.93201  -2.33420
H     2.28687   1.43460  -3.25969
H     0.65523   0.85106  -3.74182
H     2.01800  -0.31812  -3.58348
