57
Generated by autodE on: 2022-12-30. E = -1510.801246 Ha. Imaginary frequency = -152.7 cm-1
C    -0.97649   2.98030  -2.98006
N    -1.07298   1.97520  -1.94262
C    -0.69221   2.25169  -0.67728
O    -0.42072   3.40237  -0.29972
C    -0.67450   1.12559   0.30175
C    -0.68044   1.46434   1.80278
C    -2.10179   2.00830   2.13803
C    -3.00296   0.75096   2.00019
C    -1.97360  -0.37605   1.61919
C    -0.75036   0.06367   2.43576
C    -1.56029   0.01786   0.22715
O    -2.18750  -0.34196  -0.86523
C    -3.13256  -1.42706  -0.81727
C     0.72576  -1.97226  -0.39944
C     0.68188  -3.18564   0.40670
C     1.36521  -3.15680   1.75715
O     0.10916  -4.21237   0.02424
C     0.19555  -1.79969  -1.72719
C    -0.48105  -2.95156  -2.42578
O     0.26775  -0.70305  -2.31623
O     1.38727  -0.96709   0.24360
C     1.51088   0.29786  -0.05320
C     2.15696   1.11186   1.03425
O     2.45603   2.27850   0.88207
O     2.35306   0.41863   2.14660
C     2.89350   1.13776   3.26772
C     1.98709   0.71195  -1.43097
O     1.80392   1.78870  -1.94593
O     2.84586  -0.20753  -1.88029
C     3.41344   0.03496  -3.17636
H    -1.43342   2.59083  -3.89899
H    -1.51026   3.89386  -2.68114
H     0.07167   3.25105  -3.19139
H    -1.06140   0.99843  -2.22485
H     0.12600   2.13049   2.12330
H    -2.11501   2.39740   3.16635
H    -2.39353   2.82455   1.46446
H    -3.47984   0.47558   2.95149
H    -3.79252   0.86113   1.24392
H    -2.34538  -1.39748   1.74449
H    -0.96282   0.09469   3.51356
H     0.13444  -0.55074   2.25722
H    -3.41756  -1.61999  -1.85682
H    -4.01223  -1.12993  -0.22992
H    -2.66210  -2.31629  -0.37765
H     2.37419  -2.72485   1.70312
H     1.40992  -4.18235   2.14535
H     0.78325  -2.53652   2.45758
H    -0.88377  -2.57883  -3.37693
H    -1.27638  -3.40255  -1.82205
H     0.25175  -3.75006  -2.62277
H     2.21271   1.95086   3.55681
H     2.98041   0.40497   4.07729
H     3.87967   1.55168   3.01537
H     3.99568   0.96735  -3.17422
H     2.61514   0.09817  -3.92953
H     4.06536  -0.82102  -3.38390
