61
Generated by autodE on: 2022-06-29. E = -1642.485868 Ha
C     3.71732   9.41920   0.55549
O     4.51040   9.01897   1.68425
C     3.92709   9.07778   2.87227
O     2.80356   9.50972   3.03210
C     4.83032   8.57288   4.02102
C     5.05901   9.72520   5.02809
O     5.51965   9.55731   6.13516
O     4.79584  10.91778   4.50594
C     5.00438  12.05964   5.35365
C     6.25435   8.23939   3.48427
C     6.40540   6.90025   2.73381
C     7.37490   5.93692   3.42568
C     6.85281   5.23392   4.67921
C     6.22026   6.18225   5.74920
C     6.42447   5.62781   7.09161
N     6.61141   5.18152   8.14679
C     4.74818   6.46023   5.50632
C     4.16113   7.41941   4.76983
C     2.63263   7.21936   4.82270
C     1.92375   8.53517   5.20190
O     2.42914   9.35018   5.94403
O     0.69431   8.62676   4.71731
C    -0.02439   9.83435   5.01713
C     2.13564   6.64262   3.47386
O     2.78423   6.68048   2.44718
O     0.94067   6.08075   3.56216
C     0.43438   5.45416   2.37376
N     2.41788   6.20687   5.87924
C     1.79263   6.63561   7.12610
C     3.69604   5.52666   6.08003
C     3.68666   4.16809   5.33698
C     4.12174   2.96144   6.10646
O     3.31840   4.12031   4.17686
H     2.83218   8.77302   0.47404
H     3.40378  10.46716   0.66030
H     4.36268   9.29808  -0.32158
H     4.34961  11.99454   6.23418
H     6.05429  12.11274   5.67387
H     4.74349  12.93465   4.74798
H     6.54873   9.07667   2.84049
H     6.95135   8.27733   4.32843
H     5.42663   6.41592   2.59761
H     6.78349   7.10686   1.72186
H     8.29869   6.48656   3.67684
H     7.67049   5.14727   2.71584
H     7.68390   4.68853   5.14989
H     6.10317   4.48001   4.39844
H     6.76893   7.13232   5.76699
H    -0.99992   9.73209   4.52905
H     0.51936  10.70048   4.61391
H    -0.14800   9.94577   6.10342
H     1.10847   4.64474   2.05912
H    -0.54806   5.04950   2.64202
H     0.33643   6.18954   1.56242
H     2.39328   7.36569   7.69986
H     0.80516   7.07249   6.92212
H     1.62999   5.74966   7.75571
H     3.86669   5.34478   7.15006
H     3.41450   2.80359   6.93907
H     5.10663   3.14324   6.56592
H     4.15081   2.07410   5.46136
