28
Generated by autodE on: 2022-06-29. E = -782.000290 Ha
C     0.22236   1.99796   2.61755
O     0.18143   0.79603   1.83859
C     0.33608   0.93660   0.51970
O     0.49768   2.01783  -0.01838
C     0.35414  -0.35757  -0.20129
C     1.00974  -1.53970   0.36701
O     0.78945  -2.69490   0.03222
O     1.90756  -1.22485   1.31539
C     2.52740  -2.31956   1.99911
N    -0.11855  -0.40813  -1.47454
C     0.44352  -1.39660  -2.42905
C    -1.06854   0.39174  -1.97848
C    -2.09559   1.05922  -1.20188
C    -3.15855   1.75916  -2.01089
O    -2.14080   1.03594   0.03344
H     0.08826   1.68661   3.66001
H    -0.58946   2.67549   2.31571
H     1.18892   2.50835   2.49590
H     1.77030  -2.95297   2.48462
H     3.18392  -1.87061   2.75365
H     3.11695  -2.93064   1.29996
H    -0.11238  -2.33713  -2.34966
H     1.50214  -1.56534  -2.21122
H     0.33059  -0.98579  -3.43762
H    -1.17272   0.37004  -3.06141
H    -4.00649   2.01787  -1.36336
H    -2.72913   2.68750  -2.42650
H    -3.49881   1.14809  -2.86009
