61
Generated by autodE on: 2022-06-29. E = -1642.378768 Ha. Imaginary frequency = -249.5 cm-1
C     3.44655   8.80189   0.64854
O     4.27990   8.52305   1.78671
C     3.93453   9.08223   2.93825
O     2.96873   9.80129   3.07813
C     4.90878   8.74176   4.07744
C     4.96040   9.94787   5.03511
O     4.89021   9.88166   6.24165
O     5.18167  11.07716   4.36638
C     5.30332  12.27912   5.14355
C     6.37887   8.54037   3.56861
C     6.71784   7.16769   2.94495
C     7.65044   6.26645   3.77935
C     7.03606   5.30179   4.80050
C     6.28411   5.97876   5.97982
C     6.11218   5.05498   7.10683
N     5.99620   4.32302   7.99990
C     5.02671   6.61625   5.52068
C     4.53336   7.52383   4.83453
C     2.05646   7.11816   5.08188
C     1.55601   8.49323   5.35923
O     1.93568   9.22508   6.25392
O     0.61188   8.85427   4.48178
C     0.15071  10.20876   4.55235
C     1.57650   6.53285   3.78322
O     1.77782   7.00492   2.68582
O     0.75106   5.50245   4.00416
C     0.22750   4.84657   2.84117
N     2.36439   6.29303   6.12075
C     2.26196   6.78714   7.51062
C     3.13687   5.19491   5.99456
C     3.47013   4.40565   4.79371
C     4.02741   3.03761   5.09500
O     3.32233   4.78020   3.63348
H     2.42555   8.44685   0.83356
H     3.43762   9.88181   0.44377
H     3.89663   8.25896  -0.19015
H     4.37990  12.45760   5.71260
H     6.15409  12.20228   5.83543
H     5.46935  13.08770   4.42285
H     6.59009   9.35334   2.86011
H     7.03231   8.70893   4.43866
H     5.80124   6.61926   2.68310
H     7.22817   7.36586   1.99041
H     8.40179   6.89671   4.28639
H     8.21647   5.63039   3.07953
H     7.84761   4.69461   5.23076
H     6.34582   4.60657   4.30012
H     6.92535   6.79108   6.36984
H    -0.55295  10.32994   3.72078
H     0.99466  10.90316   4.44223
H    -0.35695  10.39307   5.51017
H     1.04792   4.48128   2.20820
H    -0.36955   4.00546   3.21219
H    -0.40502   5.53608   2.26358
H     3.08777   7.48295   7.70817
H     1.30467   7.29318   7.66284
H     2.33069   5.92564   8.18171
H     3.32513   4.68352   6.93604
H     3.19282   2.39236   5.42115
H     4.75819   3.05551   5.91511
H     4.47500   2.61223   4.18788
