29
Generated by autodE on: 2022-06-09. E = -3003.744683 Ha
C    -2.40187  -0.41696  -2.91264
C    -1.26354  -1.18643  -2.22400
C    -1.45157  -2.69965  -2.44204
C    -1.18527  -0.89055  -0.78881
C    -0.71905  -0.62649   0.30113
C     0.31292  -0.32569   1.27319
C     0.15835  -0.99906   2.62771
Br    0.22722   1.70069   1.62160
C     1.67186  -0.62546   0.60587
C     1.85905  -0.16564  -0.85241
C     1.37921  -1.10804  -1.99485
C     0.11522  -0.71134  -2.78743
H    -3.38344  -0.75121  -2.54256
H    -2.36682  -0.59061  -3.99971
H    -2.31364   0.66537  -2.73293
H    -0.63083  -3.27630  -1.99030
H    -2.39710  -3.04429  -1.99618
H    -1.47751  -2.91853  -3.52114
H    -0.79470  -0.72954   3.10286
H     0.98509  -0.72155   3.29688
H     0.17827  -2.09137   2.48112
H     1.79618  -1.72161   0.66048
H     2.45735  -0.19140   1.24357
H     1.41422   0.83593  -0.97546
H     2.94272  -0.02152  -0.98394
H     2.19699  -1.16052  -2.73071
H     1.27360  -2.13631  -1.60957
H     0.18940  -1.10999  -3.81328
H     0.08596   0.38708  -2.88133
