32
Generated by autodE on: 2022-06-09. E = -785.178402 Ha
C    -5.38880  -0.68009   0.19544
O    -4.13011  -0.08061  -0.11690
C    -3.02386  -0.72537   0.33344
O    -3.11303  -1.76495   0.97877
C    -1.86033   0.03177  -0.09104
N    -0.56973  -0.25028   0.13396
C    -0.21194  -1.46883   0.90303
C     0.48048   0.51369  -0.30040
C     0.30939   1.73150  -1.06746
C     1.57302   2.46179  -1.47630
O    -0.79370   2.20297  -1.40473
C     1.86567   0.06724   0.03402
C     2.57691  -0.77078  -0.83992
C     3.88485  -1.16227  -0.54278
C     4.49957  -0.71726   0.63189
C     3.80190   0.12129   1.50699
C     2.49396   0.51174   1.20849
H    -6.15267  -0.03023  -0.24831
H    -5.45962  -1.69092  -0.23395
H    -5.53503  -0.74241   1.28447
H    -2.04682   0.93470  -0.65964
H     0.35413  -1.17258   1.79256
H    -1.12335  -1.99199   1.18840
H     0.41771  -2.11022   0.27735
H     2.16336   2.75826  -0.59601
H     1.29115   3.35619  -2.04729
H     2.22118   1.82084  -2.09301
H     2.09627  -1.11471  -1.75888
H     4.42616  -1.81511  -1.23162
H     5.52290  -1.02171   0.86403
H     4.27823   0.47459   2.42459
H     1.94855   1.16957   1.88936
