61
Generated by autodE on: 2022-06-09. E = -3788.897221 Ha. Imaginary frequency = -184.0 cm-1
C    -0.91651  -3.45068  -2.40581
O    -0.40033  -4.70162  -2.88297
C     0.49641  -5.31649  -2.11635
O     0.89885  -4.86502  -1.06220
C     1.10611  -6.51922  -2.77121
C    -0.44227  -7.29822  -4.46988
C    -1.12441  -8.20721  -3.97067
C    -2.21643  -9.21264  -4.10913
C    -1.63141 -10.63741  -4.09784
C    -3.29528  -9.10616  -3.01943
C    -2.82625  -8.95031  -5.51900
C    -3.55510  -7.61794  -5.77104
C    -2.95825  -6.27497  -5.31089
C    -1.67064  -5.71984  -5.93416
C    -0.32527  -6.43473  -5.65384
C     0.84772  -5.47168  -5.74910
Br    0.05064  -7.73700  -7.26268
C     0.15308  -8.31674  -1.52262
C     0.01113  -9.72545  -1.16700
C     0.95714 -10.84823  -1.54796
O    -0.98203 -10.04328  -0.48277
C    -0.69923  -7.40090  -0.69336
C    -0.30756  -7.19465   0.64291
C    -1.02617  -6.34260   1.47945
C    -2.16052  -5.67886   0.99621
C    -2.56451  -5.88137  -0.32421
C    -1.83928  -6.73666  -1.16115
N     1.17798  -7.75001  -2.24600
C     2.18074  -8.59666  -2.91722
H    -1.43201  -3.59621  -1.44630
H    -0.10211  -2.72281  -2.28226
H    -1.62308  -3.10831  -3.17029
H     1.93835  -6.24050  -3.41541
H    -0.80171 -10.73209  -4.81469
H    -1.26681 -10.90858  -3.09959
H    -2.41237 -11.36213  -4.37747
H    -2.87396  -9.30151  -2.02439
H    -4.07865  -9.85542  -3.21655
H    -3.77080  -8.11609  -3.00460
H    -2.01667  -9.07273  -6.25051
H    -3.54850  -9.76234  -5.71499
H    -4.55145  -7.67863  -5.30100
H    -3.74827  -7.56079  -6.85704
H    -3.73013  -5.51438  -5.51995
H    -2.84719  -6.27473  -4.21668
H    -1.54331  -4.70144  -5.52911
H    -1.78048  -5.59942  -7.02225
H     0.76420  -4.72265  -4.94962
H     1.80850  -5.99347  -5.65123
H     0.82916  -4.94717  -6.71457
H     1.08841 -10.95561  -2.63105
H     0.52481 -11.77479  -1.14923
H     1.95000 -10.70319  -1.09716
H     0.58101  -7.70613   1.02035
H    -0.70069  -6.19209   2.51168
H    -2.72470  -5.00800   1.64853
H    -3.44779  -5.37034  -0.71421
H    -2.14607  -6.86749  -2.19419
H     1.68156  -9.25224  -3.64063
H     2.88259  -7.94814  -3.44780
H     2.73444  -9.18383  -2.18159
