33
Generated by autodE on: 2022-07-27. E = -765.310416 Ha
C    -2.89612  -2.56025  -1.03432
N    -2.06612  -1.38848  -0.85047
C    -0.87989  -1.46196  -0.19982
O    -0.43184  -2.55889   0.17766
C    -0.20039  -0.16252   0.04049
C    -1.00641   1.07953   0.00572
C    -0.69591   2.11679  -0.89551
C    -1.47607   3.27268  -0.94648
C    -2.58576   3.41026  -0.10628
C    -2.91053   2.38358   0.78675
C    -2.12885   1.22899   0.84326
N     1.13197  -0.10824   0.27753
C     1.66903   1.13160   0.88542
C     1.99169  -1.12133  -0.00296
C     3.39978  -1.28415   0.24094
C     4.30265  -0.29433   0.95068
O     3.91695  -2.34210  -0.18262
H    -3.24372  -2.96969  -0.07089
H    -3.77114  -2.28378  -1.63516
H    -2.34372  -3.35701  -1.55627
H    -2.43260  -0.48202  -1.11762
H     0.16202   2.00973  -1.56262
H    -1.22065   4.06689  -1.65189
H    -3.19754   4.31434  -0.14876
H    -3.77357   2.48540   1.44879
H    -2.38035   0.43369   1.54815
H     2.30794   1.65750   0.16772
H     2.24555   0.85982   1.77264
H     0.84676   1.77763   1.19250
H     1.54509  -1.97239  -0.50562
H     4.31979   0.68515   0.45223
H     3.99453  -0.13437   1.99518
H     5.31720  -0.71399   0.94503
