51
Generated by autodE on: 2022-06-21. E = -1001.259122 Ha. Imaginary frequency = -333.2 cm-1
C    -3.59597  -2.56808  -0.29212
N    -2.82431  -1.36164  -0.08949
C    -1.63205  -1.38319   0.56365
O    -1.21874  -2.44955   1.05974
C    -0.89413  -0.09799   0.64262
C    -1.67489   1.16548   0.74150
C    -1.12990   2.38705   0.29413
C    -1.83374   3.58537   0.40946
C    -3.10891   3.60267   0.98245
C    -3.65961   2.40798   1.45555
C    -2.95163   1.21038   1.34271
N     0.36946  -0.09685   1.22417
C     0.75949   0.96430   2.16019
C     1.28113  -1.01678   0.75252
C     2.66635  -1.18738   1.23302
C     3.54198  -0.05200   1.71042
O     3.16129  -2.31640   1.14023
C     1.42165  -0.53633  -1.29882
C     2.12450   0.80493  -1.33479
C     2.29872  -1.68342  -1.77113
C     0.03810  -0.57359  -1.66001
C    -0.52858  -1.90197  -2.08886
C    -0.63013   0.59514  -2.33272
H    -3.06890  -3.29835  -0.93036
H    -4.54551  -2.30408  -0.77560
H    -3.81685  -3.06135   0.66721
H    -3.09026  -0.52489  -0.59511
H    -0.13284   2.40146  -0.14072
H    -1.38146   4.51163   0.04717
H    -3.66377   4.53978   1.06910
H    -4.64418   2.40726   1.92945
H    -3.39248   0.29868   1.74463
H     1.31688   1.78143   1.68375
H    -0.14106   1.38061   2.62091
H     1.36850   0.53255   2.96150
H     0.84674  -1.98547   0.52297
H     3.27289   0.92166   1.28804
H     3.47675   0.02374   2.80818
H     4.58226  -0.29855   1.45596
H     2.16861   1.19305  -2.36842
H     3.16002   0.72189  -0.97696
H     1.61279   1.56156  -0.72456
H     3.32864  -1.57987  -1.40178
H     1.92806  -2.66763  -1.45475
H     2.34268  -1.68821  -2.87564
H    -0.09269  -2.20107  -3.06114
H    -0.30824  -2.71187  -1.37824
H    -1.61543  -1.84919  -2.22796
H    -0.26482   1.57264  -2.00520
H    -1.72302   0.57438  -2.19487
H    -0.44847   0.53425  -3.42543
