42
Generated by autodE on: 2022-05-31. E = -1202.811878 Ha
C     1.70131  -3.92379  -0.21305
O     1.20394  -2.58534  -0.39821
C     0.44440  -2.09175   0.57337
O     0.13616  -2.68459   1.58416
C     0.06567  -0.67556   0.28423
C    -1.12514  -0.23693  -0.18599
C    -2.26760  -1.10877  -0.52896
O    -2.26395  -2.31543  -0.36714
O    -3.28473  -0.42871  -1.04946
C    -4.44370  -1.18098  -1.43850
C    -1.01520   1.25895  -0.35762
C    -2.03252   2.06497   0.49618
C    -1.95516   3.55935   0.40326
O    -2.82627   1.48390   1.20487
C    -1.18547   1.60983  -1.87857
C    -0.01598   1.33088  -2.77043
O    -2.23100   2.07786  -2.27025
N     0.32711   1.60460   0.08186
C     0.94161   0.51224   0.42395
C     2.35250   0.48310   0.84337
C     2.83482  -0.49571   1.73102
C     4.17876  -0.50129   2.10768
C     5.05555   0.46185   1.59980
C     4.58219   1.44062   0.71834
C     3.23968   1.45437   0.34391
H     2.28706  -4.15205  -1.11017
H     2.33729  -3.96631   0.68257
H     0.86494  -4.62885  -0.10951
H    -5.14637  -0.45196  -1.85690
H    -4.88389  -1.67989  -0.56340
H    -4.17425  -1.93256  -2.19406
H    -0.92269   3.90060   0.25484
H    -2.54370   3.87595  -0.47290
H    -2.39478   4.00650   1.30456
H     0.71805   2.14367  -2.64473
H     0.48814   0.39072  -2.50534
H    -0.35221   1.30933  -3.81503
H     2.15911  -1.23479   2.16136
H     4.54078  -1.26035   2.80443
H     6.10853   0.45040   1.89038
H     5.26499   2.19277   0.31699
H     2.86793   2.20793  -0.35149
