26
Generated by autodE on: 2022-05-31. E = -669.376996 Ha
C    -2.43110  -0.01602   2.13596
C    -2.90540   0.23582   0.71850
O    -4.10777   0.41470   0.48223
C    -1.89217   0.25510  -0.31669
N    -0.60315   0.05602   0.05410
C     0.53531  -0.09591   0.22770
C     1.92275  -0.27703   0.42736
C     2.43298  -0.50639   1.72228
C     3.80478  -0.67936   1.88465
C     4.66107  -0.62610   0.77832
C     4.14792  -0.39816  -0.50418
C     2.78018  -0.22202  -0.69286
C    -2.05627   0.46352  -1.74861
C    -3.44230   0.69501  -2.29590
O    -1.07430   0.44993  -2.50518
H    -1.71872   0.76204   2.45485
H    -3.29759  -0.01416   2.80960
H    -1.91068  -0.98441   2.21094
H     1.75433  -0.54511   2.57542
H     4.20951  -0.85707   2.88295
H     5.73559  -0.76336   0.91681
H     4.81908  -0.35756  -1.36434
H     2.36103  -0.04323  -1.68420
H    -3.89819   1.58824  -1.84360
H    -3.36927   0.82079  -3.38470
H    -4.10556  -0.14923  -2.05661
