16
Generated by autodE on: 2022-05-31. E = -533.327076 Ha
C    -4.09508  -0.83412   0.26383
O    -2.67062  -0.72236   0.44528
C    -2.03415   0.11057  -0.37036
O    -2.55198   0.77509  -1.24298
C    -0.60717   0.14017  -0.09693
C     0.59195   0.20439   0.07501
C     2.01461   0.33636   0.34039
O     2.46811   1.15596   1.11088
O     2.72547  -0.54130  -0.35865
C     4.15341  -0.50103  -0.17437
H    -4.32073  -1.19580  -0.74926
H    -4.57534   0.14139   0.42475
H    -4.43436  -1.55690   1.01374
H     4.55882  -1.28505  -0.82316
H     4.54570   0.48276  -0.46824
H     4.40567  -0.70198   0.87635
