51
Generated by autodE on: 2022-06-21. E = -1117.302637 Ha
C     0.06230  -3.14824  -0.59477
C     0.78119  -2.29993  -1.34322
C     1.68902  -2.78376  -2.44158
C     0.72380  -0.79520  -1.15644
C    -0.48113  -0.23487  -0.39087
C    -1.75300  -0.18805  -1.17713
C    -2.99660  -0.36185  -0.69224
C    -3.31053  -0.66430   0.74834
C    -4.20136  -0.23193  -1.58483
C     0.04899   1.14736   0.03855
C    -0.73025   1.75957   1.16766
C    -0.51674   1.36749   2.49699
C    -1.33568   1.85777   3.51699
C    -2.38221   2.73769   3.21946
C    -2.59696   3.13524   1.89612
C    -1.77010   2.65301   0.87753
O     1.40430   0.87852   0.42385
C     1.93803  -0.15597  -0.39141
C     2.66746  -1.19330   0.48497
C     2.15866  -1.40912   1.87456
O     3.62039  -1.79446   0.02119
C     2.97447   0.45144  -1.35309
O     3.00395   0.27810  -2.55209
O     3.84597   1.20433  -0.68831
C     4.88646   1.82860  -1.45846
H     0.12723  -4.22772  -0.76022
H    -0.61454  -2.81104   0.19296
H     1.67793  -3.88045  -2.51984
H     1.38001  -2.35766  -3.41128
H     2.72557  -2.45396  -2.27134
H     0.73286  -0.34056  -2.15894
H    -0.62150  -0.80466   0.53654
H    -1.64061   0.05989  -2.23952
H    -2.42067  -0.87492   1.35511
H    -3.83217   0.19242   1.21021
H    -3.99673  -1.52534   0.82159
H    -4.78854  -1.16722  -1.59028
H    -3.92517   0.01231  -2.62125
H    -4.87923   0.55549  -1.21023
H     0.04176   1.82852  -0.83125
H     0.28826   0.66992   2.73045
H    -1.15953   1.54727   4.54980
H    -3.02549   3.11551   4.01778
H    -3.40873   3.82600   1.65588
H    -1.93799   2.96244  -0.15680
H     2.64628  -2.28855   2.31367
H     1.06569  -1.52450   1.88084
H     2.39047  -0.51518   2.47592
H     5.49707   1.06525  -1.96154
H     5.49453   2.39253  -0.74221
H     4.45279   2.50579  -2.20803
