23
Generated by autodE on: 2022-06-21. E = -351.521383 Ha
C    -3.04288   0.84589   2.07996
C    -2.23676   0.83234   0.99561
C    -2.62063   1.54789  -0.27435
C    -0.96427   0.11479   1.04056
C    -0.06977   0.02671   0.02418
C     1.18063  -0.69834   0.12160
C     2.12480  -0.83152  -0.84411
C     3.37799  -1.62075  -0.59032
C     2.02685  -0.22861  -2.21672
H    -3.99964   1.37547   2.07367
H    -2.76171   0.32553   3.00078
H    -3.59646   2.04334  -0.17273
H    -1.87100   2.31082  -0.54269
H    -2.67429   0.84767  -1.12453
H    -0.73170  -0.38903   1.98654
H    -0.29462   0.52620  -0.92211
H     1.37084  -1.18707   1.08488
H     3.47160  -2.45018  -1.31430
H     4.27365  -0.98966  -0.73298
H     3.40645  -2.04074   0.42582
H     2.08750  -1.01870  -2.98596
H     1.10436   0.34189  -2.38459
H     2.88440   0.44259  -2.40059
