28
Generated by autodE on: 2022-06-21. E = -765.709384 Ha
C    -2.80304   2.82656  -0.65573
O    -1.93013   1.72162  -0.40206
C    -2.52141   0.52736  -0.14498
O    -3.74109   0.40928  -0.13129
C    -1.57462  -0.53637   0.10063
O    -0.21300  -0.35090   0.07357
C     0.56929   0.63224  -0.15090
C     1.98699   0.43181  -0.08271
C     2.81956   1.54506  -0.33516
C     4.20383   1.40609  -0.28176
C     4.76832   0.16209   0.02252
C     3.94761  -0.94828   0.27510
C     2.56521  -0.82198   0.22477
C    -1.93384  -1.90081   0.40480
C    -0.79880  -2.88141   0.64290
O    -3.10926  -2.28862   0.47648
H    -3.43558   2.63062  -1.53392
H    -3.44523   3.02484   0.21498
H    -2.15143   3.68775  -0.84610
H     0.14581   1.60877  -0.38979
H     2.36564   2.51020  -0.57127
H     4.84657   2.26670  -0.47727
H     5.85446   0.05354   0.06428
H     4.39705  -1.91482   0.51203
H     1.92069  -1.67977   0.42014
H    -1.23407  -3.86638   0.85528
H    -0.17276  -2.56636   1.49193
H    -0.14154  -2.95263  -0.23728
