28
Generated by autodE on: 2022-07-27. E = -765.711491 Ha
C     2.38306   0.45142  -4.07128
O     2.24214  -0.25727  -2.83698
C     1.24994   0.15552  -2.02264
O     0.51318   1.09602  -2.32911
C     1.14705  -0.59261  -0.79587
O     0.17024  -0.24361   0.10805
C    -0.74227   0.65076   0.10705
C    -1.61957   0.75471   1.23575
C    -1.51067  -0.09205   2.36371
C    -2.39411   0.05868   3.42505
C    -3.39072   1.04619   3.37967
C    -3.50434   1.88836   2.26760
C    -2.62433   1.74699   1.19795
C     1.94393  -1.70604  -0.34012
C     1.59414  -2.29160   1.01747
O     2.87694  -2.18821  -0.99845
H     2.60058   1.51527  -3.89319
H     1.47038   0.36844  -4.68033
H     3.22481  -0.02013  -4.59279
H    -0.82798   1.31279  -0.75631
H    -0.73330  -0.85693   2.39094
H    -2.31302  -0.59341   4.29715
H    -4.08173   1.15740   4.21841
H    -4.28127   2.65496   2.23757
H    -2.70089   2.39706   0.32344
H     2.28233  -3.12197   1.22178
H     1.68552  -1.53551   1.81257
H     0.55727  -2.66102   1.03725
