51
Generated by autodE on: 2022-06-21. E = -1117.232872 Ha. Imaginary frequency = -330.6 cm-1
C     0.05809  -2.85532   0.74741
C     0.54367  -2.54977  -0.47571
C     1.38678  -3.52067  -1.26384
C     0.28635  -1.26959  -1.13673
C    -0.68599  -0.34281  -0.72299
C    -1.27073   0.59718  -1.68742
C    -2.50110   1.15189  -1.62810
C    -3.51897   0.85992  -0.55927
C    -2.96087   2.11422  -2.68867
C     0.41641   1.01065   0.50479
C    -0.42583   1.27357   1.66693
C    -0.37202   0.46884   2.82189
C    -1.24136   0.71439   3.88261
C    -2.17671   1.75531   3.80297
C    -2.23320   2.55822   2.65909
C    -1.36038   2.32237   1.59670
O     1.54552   0.35184   0.74672
C     2.32795  -0.19125  -0.22520
C     3.25920  -1.18464   0.31172
C     3.13986  -1.49452   1.78546
O     4.09058  -1.77278  -0.38542
C     2.50602   0.52955  -1.48386
O     2.03837   1.63822  -1.72459
O     3.21578  -0.15546  -2.39591
C     3.40421   0.48096  -3.66517
H     0.28114  -3.82022   1.20968
H    -0.56351  -2.16361   1.32025
H     1.65102  -4.40664  -0.66936
H     2.31190  -3.03970  -1.61301
H     0.84171  -3.85583  -2.16315
H     0.68339  -1.17140  -2.15020
H    -1.32565  -0.65833   0.10155
H    -0.61901   0.87289  -2.52395
H    -3.14672   0.20267   0.23645
H    -3.86717   1.79549  -0.09119
H    -4.41124   0.38725  -1.00799
H    -3.88166   1.75002  -3.17834
H    -2.19570   2.27614  -3.46219
H    -3.21686   3.09193  -2.24252
H     0.44351   1.75259  -0.28973
H     0.34962  -0.34764   2.87604
H    -1.19598   0.08907   4.77718
H    -2.85974   1.94011   4.63529
H    -2.95828   3.37270   2.59609
H    -1.39817   2.94451   0.70036
H     3.92794  -2.20814   2.05773
H     3.22270  -0.58578   2.39915
H     2.15329  -1.94060   1.99181
H     3.92372   1.44305  -3.54848
H     2.43758   0.64789  -4.16320
H     4.01733  -0.20885  -4.25706
