12
Generated by autodE on: 2022-10-21. E = -306.490620 Ha
C    -2.68998  -0.53340   0.37460
O    -1.71681   0.44442   0.80068
C    -0.53854   0.34932   0.23508
C     0.53678   0.27917  -0.31976
O     1.71510   0.22846  -0.89096
C     2.69299  -0.59719  -0.22264
H    -3.60946  -0.31660   0.93236
H    -2.87180  -0.44034  -0.70724
H    -2.33466  -1.54875   0.60861
H     2.34147  -1.63941  -0.17670
H     3.61055  -0.53383  -0.82055
H     2.87613  -0.21889   0.79491
