19
Generated by autodE on: 2022-10-26. E = -626.806825 Ha
C     3.30731  -0.80857   2.27649
O     2.54535  -0.08502   1.29963
C     1.30056  -0.52017   1.06659
O     0.78141  -1.47182   1.61960
C     0.64480   0.30412   0.05483
C     1.23861   1.40351  -0.59057
N     1.70325   2.32068  -1.14431
O    -0.59725  -0.05956  -0.23727
C    -1.43634   0.44668  -1.06743
C    -2.75257  -0.20979  -1.14901
C    -3.71409   0.40415  -2.12221
O    -3.00585  -1.18648  -0.45364
H     3.42987  -1.85708   1.96860
H     2.81078  -0.76963   3.25687
H     4.28256  -0.31122   2.32543
H    -1.15189   1.31965  -1.66332
H    -3.89018   1.46082  -1.85993
H    -3.27967   0.39481  -3.13584
H    -4.66166  -0.14889  -2.11373
