19
Generated by autodE on: 2022-10-21. E = -626.807122 Ha
C     3.91931   0.51552  -0.26338
O     2.70710  -0.16849  -0.61449
C     1.57922   0.28345  -0.05467
O     1.52202   1.22682   0.72027
C     0.42522  -0.49065  -0.48254
C     0.50246  -1.58053  -1.37374
N     0.57933  -2.48050  -2.11275
O    -0.80215  -0.22039  -0.04311
C    -1.26491   0.67190   0.75730
C    -2.71161   0.65235   1.00996
C    -3.54418  -0.39839   0.33506
O    -3.16621   1.50331   1.76853
H     4.09933   0.44583   0.81917
H     3.86320   1.57291  -0.55965
H     4.71928   0.00844  -0.81436
H    -0.59851   1.40132   1.21856
H    -3.19371  -1.40301   0.62156
H    -4.59476  -0.27092   0.62411
H    -3.44232  -0.32097  -0.75929
