31
Generated by autodE on: 2022-10-21. E = -933.309983 Ha. Imaginary frequency = -169.1 cm-1
C     3.98286  -1.65425   1.88779
O     3.19897  -0.94721   0.92022
C     1.97084  -1.44022   0.66353
O     1.50896  -2.43267   1.20486
C     1.27816  -0.63245  -0.31843
C     1.83629   0.46448  -0.98658
N     2.27138   1.39844  -1.54191
O     0.02453  -1.04967  -0.60572
C    -0.83648  -0.40163  -1.31809
C    -2.13575  -1.09047  -1.54299
C    -3.04844  -0.43281  -2.53263
O    -2.38950  -2.13248  -0.95912
C    -1.67541   1.18029   0.25029
O    -2.89767   0.71938   0.40609
C    -3.76328   1.54135   1.21609
C    -0.74431   1.96126   0.48422
O     0.29487   2.71509   0.50275
C     1.26576   2.48262   1.56049
H     4.16146  -2.68955   1.56195
H     3.47865  -1.66201   2.86534
H     4.93351  -1.11305   1.95953
H    -0.50030   0.41600  -1.96036
H    -3.05547   0.65941  -2.40343
H    -2.66834  -0.63927  -3.54873
H    -4.06262  -0.84146  -2.43812
H    -4.72877   1.02286   1.25859
H    -3.33861   1.64586   2.22643
H    -3.88044   2.53221   0.75168
H     1.60316   1.43714   1.52970
H     0.80058   2.70664   2.53005
H     2.09803   3.16479   1.35754
