54
Generated by autodE on: 2022-06-23. E = -1169.152694 Ha
C    -5.66276  -0.00298   1.46313
N    -4.31670   0.08245   0.93404
C    -3.48967  -0.96205   0.86060
O    -3.78333  -2.11981   1.19223
C    -2.07646  -0.65000   0.33743
C    -1.82095  -1.42418  -0.98509
O    -1.37171  -0.84271  -1.98082
N    -2.08663  -2.73342  -0.95913
C    -1.90256  -3.57690  -2.12474
C    -1.04397  -0.96198   1.44717
C     0.03147   0.13880   1.30714
C     0.69761   0.45530   2.64653
C     1.04763  -0.27337   0.25902
C     2.37337  -0.03893   0.29537
C     3.26739  -0.41110  -0.79026
C     4.60111  -0.18541  -0.86424
C     5.38942  -0.61541  -2.07001
C     5.40751   0.49748   0.20475
C    -0.85394   1.34526   0.76790
C    -1.44369   2.24083   1.85032
C    -0.02440   2.17556  -0.21858
O     0.77365   3.02563   0.19842
N    -0.19259   1.88200  -1.51581
C     0.72128   2.39125  -2.51779
O    -1.93919   0.72695   0.05510
H    -6.04578  -1.02205   1.32438
H    -6.31446   0.70202   0.92966
H    -5.69317   0.23711   2.53885
H    -3.92268   0.98433   0.67929
H    -2.57819  -3.08443  -0.13721
H    -2.09283  -4.61934  -1.84218
H    -2.58976  -3.29813  -2.94041
H    -0.87342  -3.49314  -2.50459
H    -0.62534  -1.97141   1.35647
H    -1.53391  -0.88173   2.42696
H     1.30889  -0.39900   2.97261
H    -0.04864   0.65449   3.42619
H     1.35224   1.33445   2.56576
H     0.64719  -0.76127  -0.63298
H     2.80853   0.46906   1.15892
H     2.79090  -0.91757  -1.63841
H     4.75867  -1.10797  -2.82469
H     5.88600   0.25110  -2.54262
H     6.19821  -1.31112  -1.78263
H     5.89668   1.39986  -0.20289
H     4.81673   0.79610   1.08030
H     6.22283  -0.16284   0.54945
H    -0.66421   2.82619   2.35214
H    -2.15472   2.94011   1.38449
H    -1.98242   1.64168   2.59698
H    -0.75272   1.05037  -1.72714
H     0.34593   2.12970  -3.51531
H     0.80514   3.48524  -2.44684
H     1.73286   1.96501  -2.39692
