23
Generated by autodE on: 2022-06-23. E = -351.521381 Ha
C    -3.47548  -0.47006  -1.41372
C    -2.53042  -0.08702  -0.52718
C    -2.89975   0.58885   0.76858
C    -1.11815  -0.32797  -0.81629
C    -0.07773   0.00439  -0.01132
C     1.30674  -0.25911  -0.34698
C     2.39944   0.03455   0.40234
C     2.35193   0.70062   1.74815
C     3.77973  -0.30453  -0.08505
H    -4.53914  -0.30232  -1.22289
H    -3.20422  -0.96119  -2.35337
H    -2.43244   1.58470   0.84495
H    -2.54365   0.00755   1.63536
H    -3.98842   0.71045   0.85830
H    -0.90265  -0.82158  -1.77164
H    -0.28458   0.49642   0.94301
H     1.47428  -0.74953  -1.31361
H     1.33633   0.94543   2.08450
H     2.81984   0.05320   2.51087
H     2.94397   1.63276   1.73447
H     4.40612   0.60334  -0.14991
H     4.29167  -0.97730   0.62643
H     3.76500  -0.78862  -1.07256
