31
Generated by autodE on: 2022-06-23. E = -817.531959 Ha
C     3.70539   2.18510   1.30457
N     2.56321   1.38543   0.91100
C     2.67036   0.05405   0.74522
O     3.72035  -0.57371   0.93296
C     1.43604  -0.66604   0.31197
C     1.43158  -2.11195   0.07556
O     0.44657   0.10974   0.01733
C    -0.82229  -0.18901  -0.35177
C    -1.52565  -1.26578   0.34405
O    -1.04143  -1.80737   1.35823
N    -2.74494  -1.60261  -0.14688
C    -3.64006  -2.44107   0.62262
C    -1.47230   0.88308  -1.10402
O    -2.66345   0.79538  -1.48046
N    -0.72398   1.96913  -1.40953
C    -1.27122   3.07594  -2.16569
H     4.08717   1.87496   2.29063
H     4.52783   2.08653   0.57855
H     3.40054   3.23683   1.35676
H     1.66323   1.83392   0.77404
H     2.46436  -2.46749  -0.01877
H     0.84876  -2.31482  -0.84278
H     0.91571  -2.65881   0.88291
H    -3.12648  -0.94270  -0.82824
H    -3.97260  -1.95887   1.55947
H    -4.52570  -2.66902   0.01563
H    -3.14842  -3.38730   0.89149
H     0.25273   1.98978  -1.14162
H    -2.14574   3.51655  -1.66089
H    -1.58939   2.76233  -3.17375
H    -0.49945   3.84882  -2.26697
