31
Generated by autodE on: 2022-07-27. E = -817.525428 Ha
C     3.20043   2.39482  -2.00471
N     2.17416   1.71379  -1.24416
C     1.86330   2.09396   0.01012
O     2.38986   3.05584   0.58700
C     0.82259   1.27908   0.69909
C     0.49364   1.46470   2.12129
O     0.35040   0.33262  -0.03418
C    -0.48208  -0.70692   0.07680
C    -1.64729  -0.76120   0.96711
O    -2.13835  -1.85747   1.31307
N    -2.23497   0.40451   1.32655
C    -3.41713   0.42205   2.16606
C    -0.23246  -1.67035  -1.01200
O     0.60625  -1.43456  -1.90425
N    -0.94479  -2.81616  -0.97843
C    -0.74987  -3.85669  -1.96333
H     2.99422   3.47475  -2.06191
H     4.19702   2.26643  -1.54979
H     3.22142   1.98339  -3.02093
H     1.73508   0.87831  -1.62366
H    -0.49119   1.93664   2.28013
H     1.26020   2.09859   2.58244
H     0.45448   0.47921   2.61915
H    -1.95885   1.26848   0.87429
H    -3.24345  -0.14914   3.09011
H    -4.29121  -0.01653   1.65564
H    -3.64649   1.46187   2.43009
H    -1.55184  -2.95491  -0.17098
H     0.26707  -4.28270  -1.91647
H    -0.90261  -3.47461  -2.98509
H    -1.47320  -4.66070  -1.77884
