25
Generated by autodE on: 2022-10-13. E = -759.702122 Ha
C    -4.29993   0.73236  -0.10990
O    -3.01914   0.11674   0.11118
C    -1.94709   0.81062  -0.24582
O    -1.96657   1.92581  -0.73782
C    -0.68539   0.08745   0.04006
N     0.38989   0.80624  -0.20257
C     1.71627   0.48957  -0.19164
C     2.62342   1.57112  -0.28213
N     3.38643   2.45185  -0.34584
C     2.16911  -0.88655  -0.31422
C     3.65220  -1.12420  -0.40455
O     1.35542  -1.81314  -0.38944
C    -0.66281  -1.20814   0.81581
C    -1.41216  -2.39101   0.28090
O    -0.13533  -1.18742   1.91496
H    -4.43808   0.94426  -1.17953
H    -4.37475   1.66536   0.46619
H    -5.04333   0.00653   0.23689
H     0.15853   1.76941  -0.49435
H     4.15887  -0.71139   0.48232
H     4.07462  -0.61905  -1.28769
H     3.84255  -2.20244  -0.47298
H    -2.42485  -2.38783   0.71478
H    -1.50150  -2.35991  -0.81256
H    -0.90276  -3.30936   0.60288
