25
Generated by autodE on: 2022-10-08. E = -759.710639 Ha
C    -1.88418   2.23644  -1.76855
O    -1.25746   1.42578  -0.76252
C    -1.70402   0.17911  -0.61602
O    -2.68194  -0.26778  -1.18258
C    -0.88614  -0.57414   0.35797
N     0.41926  -0.39309   0.51673
C     1.42736   0.26114  -0.07023
C     1.32808   0.98954  -1.27744
N     1.35843   1.57143  -2.28718
C     2.73480   0.07228   0.60572
C     3.93501   0.74639   0.01627
O     2.77891  -0.62554   1.61512
C    -1.44913  -1.57170   1.30425
C    -2.91027  -1.89596   1.25932
O    -0.68567  -2.09869   2.11199
H    -2.94655   2.38334  -1.52889
H    -1.35251   3.19392  -1.75658
H    -1.78776   1.75895  -2.75371
H     0.77763  -0.95762   1.32188
H     4.81589   0.54487   0.63769
H     4.10804   0.37896  -1.00841
H     3.76323   1.83235  -0.05614
H    -3.15242  -2.38871   0.30527
H    -3.51736  -0.97916   1.30652
H    -3.15563  -2.56000   2.09746
