35
Generated by autodE on: 2022-10-08. E = -1214.728527 Ha. Imaginary frequency = -328.3 cm-1
C    -4.47294   0.69720  -0.59628
O    -3.21178   0.01129  -0.56438
C    -2.15845   0.66873  -1.02425
O    -2.20439   1.74106  -1.59825
C    -0.86412  -0.04815  -0.75495
C    -1.04600  -1.50221  -0.30509
C    -1.40335  -2.46233  -1.41388
O    -1.09978  -1.80890   0.86640
N     0.09035   0.32211  -1.65362
C     1.44221   0.15781  -1.46514
C     2.27641   1.15373  -2.03793
N     2.96960   1.98138  -2.47965
C     2.03132  -1.09954  -1.01880
C     3.52270  -1.14144  -0.81244
O     1.32593  -2.09303  -0.83665
C     1.25345   0.93775   0.91228
C     2.06395   0.01685   1.79807
O     3.10811   0.54793   2.27476
O     1.69487  -1.17038   1.97370
C    -0.13888   1.10851   0.89813
C    -1.11043   0.81962   2.06009
O    -2.28003   1.25415   1.87669
O    -0.68213   0.27689   3.10452
H    -4.74378   0.95514  -1.62942
H    -4.41016   1.60804   0.01517
H    -5.20366   0.00078  -0.17081
H    -2.49047  -2.38171  -1.58228
H    -0.89097  -2.22380  -2.35293
H    -1.17175  -3.48727  -1.09556
H    -0.16721   1.19266  -2.12790
H     3.88140  -0.27232  -0.24306
H     4.03038  -1.13513  -1.79130
H     3.77928  -2.06484  -0.27885
H     1.84683   1.74377   0.47679
H    -0.45209   2.01676   0.37474
