27
Generated by autodE on: 2022-06-16. E = -644.910226 Ha
C     3.92865   0.77295  -0.34842
N     2.59281   0.34199  -0.69988
C     1.67145   0.06705   0.24783
O     1.90682   0.05887   1.46326
N     0.40577  -0.27563  -0.22388
N     0.07494   0.09552  -1.57256
N    -1.03153   0.97304  -1.48084
C    -1.84632   0.48954  -0.34208
C    -2.66384   1.62790   0.24659
C    -2.74706  -0.65560  -0.81115
C    -0.73360  -0.01619   0.65267
C    -1.14754  -1.19769   1.48585
O    -0.67214  -2.30982   1.40231
H     3.95235   1.80672   0.03894
H     4.56828   0.72236  -1.23914
H     4.35260   0.11417   0.42284
H     2.23786   0.47653  -1.64252
H    -0.25498  -0.75264  -2.03589
H    -0.65096   1.89020  -1.23284
H    -3.20509   1.28760   1.14144
H    -3.40243   1.98779  -0.48575
H    -2.01393   2.46898   0.53538
H    -2.16405  -1.50168  -1.20565
H    -3.36265  -1.03328   0.01912
H    -3.41987  -0.29621  -1.60329
H    -0.49734   0.79343   1.36390
H    -1.95240  -0.96930   2.22457
