14
Generated by autodE on: 2022-06-16. E = -270.683215 Ha
C    -1.95019   1.24007  -0.42241
C    -0.78129   0.33255  -0.20286
C    -0.99687  -1.11710  -0.53104
C     0.39466   0.82717   0.27220
C     1.60004   0.05487   0.53248
O     1.74305  -1.15672   0.38381
H    -1.73390   2.28354  -0.15500
H    -2.26683   1.19525  -1.47936
H    -2.81448   0.88679   0.16727
H    -1.99793  -1.28355  -0.95279
H    -0.88584  -1.74084   0.37091
H    -0.23981  -1.48050  -1.24288
H     0.47006   1.89755   0.48492
H     2.45898   0.66443   0.90483
