27
Generated by autodE on: 2022-06-16. E = -644.855271 Ha. Imaginary frequency = -355.3 cm-1
C     4.12601   0.23786   0.34444
N     2.82925   0.61539  -0.17847
C     1.88310  -0.29562  -0.44469
O     2.03011  -1.51705  -0.32915
N     0.67523   0.30329  -0.89260
N    -0.20865  -0.59120  -1.13480
N    -1.43590  -0.23198  -1.34645
C    -2.15210   0.73672   0.07868
C    -2.60132   2.01639  -0.59050
C    -3.29930  -0.21014   0.40385
C    -1.09766   0.88724   1.03144
C    -0.45128  -0.18764   1.68636
O    -0.62988  -1.40466   1.45035
H     4.59574  -0.52591  -0.29342
H     4.77069   1.12437   0.36902
H     4.04752  -0.17168   1.36524
H     2.58576   1.59562  -0.27889
H     0.03579  -1.57904  -0.91020
H    -1.99263  -1.08732  -1.42716
H    -3.15249   2.63391   0.13748
H    -3.27072   1.80735  -1.43705
H    -1.74014   2.59558  -0.95297
H    -2.94129  -1.14227   0.85520
H    -3.96682   0.29645   1.11927
H    -3.89449  -0.43981  -0.49358
H    -0.67748   1.88285   1.19195
H     0.33715   0.10978   2.41771
