9
Generated by autodE on: 2022-10-20. E = -321.369908 Ha
C    -2.12493   0.55145  -0.35505
C    -1.05675  -0.39189   0.09812
O    -1.24886  -1.50574   0.54697
C     0.31898   0.10620  -0.02582
N     1.43867   0.43200  -0.09232
O     2.58756   0.77756  -0.16470
H    -1.96420   0.80520  -1.41598
H    -2.05320   1.49112   0.21707
H    -3.11237   0.09220  -0.21684
