24
Generated by autodE on: 2022-10-20. E = -426.769862 Ha
C     2.97471  -0.09806  -0.07606
O     1.83374   0.74770  -0.15971
C     0.61631   0.13722  -0.26048
C    -0.49768   0.71457  -0.75912
C    -0.66839   2.08951  -1.31117
C    -1.64575  -0.21410  -0.37842
C    -1.83630  -0.07306   1.16770
C    -0.53667  -0.71813   1.73431
C     0.22488  -1.15772   0.43960
C    -0.95399  -1.59026  -0.45190
H     3.85700   0.55460  -0.12648
H     3.00053  -0.65677   0.87407
H     3.00811  -0.81381  -0.91520
H     0.30240   2.58191  -1.47324
H    -1.25708   2.72573  -0.62420
H    -1.21475   2.07968  -2.27054
H    -2.56788  -0.08252  -0.96175
H    -1.95744   0.97925   1.46440
H    -2.73194  -0.61991   1.50169
H     0.06487  -0.02171   2.33650
H    -0.76251  -1.59475   2.36076
H     1.02563  -1.88781   0.60707
H    -0.64437  -1.86296  -1.47160
H    -1.55027  -2.40527  -0.01137
