33
Generated by autodE on: 2022-10-20. E = -748.128233 Ha. Imaginary frequency = -331.4 cm-1
C    -1.75503   2.59663   1.39302
O    -0.82117   2.21704   0.38252
C    -0.98309   1.05882  -0.25339
O     0.04827   0.23268   2.60555
N     0.89141  -0.18201   1.81721
C     1.24288  -0.37704   0.66727
C     2.36538  -1.14720   0.09787
C     3.49862  -1.42786   1.05129
O     2.36255  -1.53655  -1.05785
C    -0.00744   0.48769  -1.05112
C     1.11953   1.26805  -1.67354
C    -0.73952  -0.66615  -1.76839
C    -1.02931  -1.82393  -0.77653
C    -2.01293  -1.16998   0.23742
C    -2.25838   0.24594  -0.37061
C    -2.16454  -0.06648  -1.88899
H    -2.76446   2.73064   0.97703
H    -1.39780   3.55154   1.79802
H    -1.77015   1.83646   2.18991
H     4.28084  -1.99473   0.53006
H     3.90630  -0.48039   1.43698
H     3.12579  -2.00026   1.91490
H     1.95081   0.62255  -1.98206
H     1.50639   2.03050  -0.98153
H     0.75498   1.79011  -2.57689
H    -0.25143  -0.98129  -2.69957
H    -1.51438  -2.65315  -1.31348
H    -0.12235  -2.22155  -0.30761
H    -2.96621  -1.71619   0.28535
H    -1.60885  -1.10461   1.25535
H    -3.16361   0.74375  -0.00726
H    -2.92772  -0.78430  -2.23157
H    -2.20140   0.83767  -2.51463
