64
Generated by autodE on: 2022-07-02. E = -2099.075547 Ha
C     4.22917   1.62263   1.12147
N     5.18801   0.56680   0.86012
C     4.82580  -0.58839   0.29029
O     3.71645  -0.78587  -0.21017
C     5.91680  -1.69332   0.30662
C     6.79135  -1.65168  -0.94542
C     6.49394  -0.84822  -2.05031
C     7.36183  -0.80666  -3.14543
C     8.53457  -1.56550  -3.14346
C     8.84190  -2.36311  -2.03540
C     7.97833  -2.39949  -0.94026
O     6.79580  -1.43850   1.39262
C     6.45200  -2.20851   2.55169
C     7.80630  -2.64311   3.11384
C     5.68017  -1.22352   3.45969
O     4.47478  -1.09430   3.43883
O     6.49740  -0.45841   4.17233
C     5.89187   0.60781   4.92400
C     5.50610  -3.29246   1.99373
C     5.25612  -3.03548   0.69071
C     4.53595  -3.88674  -0.35331
F     3.53800  -4.66952   0.24525
C     3.75744  -3.09038  -1.44610
C     2.26877  -2.98957  -1.27138
O     4.32699  -2.73780  -2.45837
C     5.53195  -4.84811  -1.03512
C     5.85731  -6.13504  -0.26769
C     6.25072  -6.04389   1.21272
C     5.05716  -5.84905   2.16801
C     4.90520  -4.43091   2.83520
C     5.58542  -4.61246   4.22134
F     4.88343  -5.47515   4.97759
F     5.70019  -3.48426   4.94397
F     6.81643  -5.12912   4.09151
C     3.38054  -4.12299   3.14336
F     2.80770  -3.31982   2.24614
F     3.21904  -3.52368   4.33811
F     2.65718  -5.25327   3.18797
H     3.66640   1.86720   0.20957
H     3.51093   1.31964   1.90144
H     4.76613   2.51706   1.46008
H     6.08279   0.58337   1.34019
H     5.57350  -0.26445  -2.07613
H     7.11658  -0.17719  -4.00384
H     9.21101  -1.53293  -4.00076
H     9.75939  -2.95588  -2.02252
H     8.22390  -3.01183  -0.07077
H     7.77552  -2.96494   4.15657
H     8.21908  -3.44730   2.49030
H     8.47248  -1.77310   3.04902
H     5.16538   0.20325   5.64243
H     6.71225   1.10873   5.44982
H     5.38850   1.30886   4.24234
H     1.88417  -2.20418  -1.93407
H     1.98521  -2.79785  -0.23064
H     1.82620  -3.95534  -1.56936
H     5.11333  -5.13195  -2.01145
H     6.44663  -4.28299  -1.24885
H     6.68200  -6.61488  -0.81907
H     5.00089  -6.82435  -0.34933
H     6.72434  -7.00053   1.47920
H     7.02583  -5.27768   1.36457
H     5.11684  -6.58316   2.97944
H     4.13410  -6.08908   1.64221
