31
Generated by autodE on: 2022-07-02. E = -1238.531036 Ha
C     4.92478   0.25486  -0.60394
C     3.45641   0.53945  -0.56797
O     2.97940   1.65528  -0.51769
C     2.51961  -0.68855  -0.65613
F     3.24920  -1.82576  -0.31041
C     1.34107  -0.52553   0.18412
C     0.20753  -0.20678   0.45988
C    -1.19693   0.13721   0.26432
C    -1.56158   1.37908   1.11513
F    -0.73304   2.39253   0.82792
F    -2.81071   1.79637   0.87592
F    -1.45532   1.13892   2.42885
C    -2.08774  -1.06650   0.66446
F    -3.38814  -0.79293   0.50015
F    -1.80315  -2.13834  -0.08725
F    -1.90488  -1.41949   1.94388
C    -1.38082   0.48121  -1.25777
C    -0.56601  -0.34903  -2.26941
C     0.89610   0.09111  -2.56411
C     2.02402  -0.85806  -2.11818
H     5.20731  -0.29776   0.30674
H     5.16958  -0.39479  -1.45871
H     5.48346   1.19744  -0.66275
H    -2.45382   0.39315  -1.47986
H    -1.11921   1.54143  -1.38017
H    -0.59329  -1.41405  -1.99899
H    -1.12794  -0.27352  -3.21244
H     1.08275   1.09838  -2.15936
H     0.99829   0.19031  -3.65490
H     2.90119  -0.74115  -2.77339
H     1.69776  -1.90716  -2.19796
