33
Generated by autodE on: 2022-07-27. E = -860.422029 Ha
C    -1.40910   3.28789   0.14231
N    -0.44659   2.20382   0.07950
C    -0.69990   1.09838  -0.64815
O    -1.61014   1.03412  -1.47914
C     0.29885  -0.01294  -0.49449
O     0.77771  -0.37713   0.66669
C     0.39054  -0.24142   1.94135
C     1.42316  -0.64097   2.93955
C    -0.98535   0.01062   2.24698
O    -1.90388   0.10833   1.42891
O    -1.20117   0.05808   3.58587
C    -2.56014   0.20717   4.00177
C     0.91556  -0.65330  -1.63846
C     0.71161  -0.17696  -2.95614
C     1.33280  -0.80013  -4.03568
C     2.16983  -1.90374  -3.83602
C     2.37862  -2.38617  -2.53755
C     1.75748  -1.77725  -1.45197
H    -1.61841   3.68098  -0.86301
H    -2.36073   2.95051   0.58549
H    -0.99530   4.09493   0.75887
H     0.25831   2.15718   0.80973
H     1.86003   0.23248   3.45648
H     2.24197  -1.16822   2.42817
H     1.00197  -1.30018   3.71384
H    -2.53992   0.24338   5.09778
H    -3.17132  -0.64463   3.66688
H    -2.99259   1.13758   3.60334
H     0.06461   0.68175  -3.12877
H     1.16516  -0.41684  -5.04478
H     2.65288  -2.38887  -4.68708
H     3.02385  -3.25217  -2.37288
H     1.90932  -2.17186  -0.44679
