51
Generated by autodE on: 2022-06-07. E = -4005.004876 Ha
C     2.79795   0.43332   3.46785
O     2.08860   0.01305   2.29676
C     1.63841   0.97811   1.49334
O     1.90503   2.14231   1.66466
C     0.93637   0.33409   0.24151
C     2.17324   0.16574  -0.69803
O     3.00460   1.03876  -0.83065
O     2.23350  -1.00775  -1.30376
C     3.33639  -1.21803  -2.20193
N     0.26134  -0.91355   0.50144
C     0.91515  -2.08555   1.05715
C    -1.16295  -0.75807   0.74399
C    -1.92349  -2.05893   0.47658
C    -1.38037  -0.28628   2.23210
C    -2.44590  -0.91894   3.08399
O    -0.60845   0.52655   2.70761
C    -1.55306   0.38205  -0.25456
Br   -3.10596   1.35687   0.56720
C    -1.98125  -0.08974  -1.66732
C    -2.39959   1.10265  -2.56314
C    -1.04455   1.74652  -2.95725
C    -0.03521   0.96109  -2.09651
C    -0.62087  -0.45575  -2.28379
C    -0.20122   1.18403  -0.53392
C    -0.24520   2.67884  -0.17227
F    -0.43579   2.91979   1.12854
F     0.88393   3.29388  -0.56902
F    -1.25419   3.32946  -0.78981
H     2.14260   1.03950   4.11001
H     3.09205  -0.48571   3.98785
H     3.68741   1.01885   3.19431
H     3.22463  -2.24138  -2.57648
H     4.28922  -1.10469  -1.66677
H     3.28917  -0.49808  -3.03125
H     1.99474  -2.03227   0.89833
H     0.74384  -2.19825   2.14259
H     0.55246  -2.99466   0.55277
H    -1.72650  -2.80228   1.25859
H    -3.00500  -1.87296   0.45637
H    -1.62658  -2.49222  -0.48570
H    -2.60552  -0.30287   3.97864
H    -3.39045  -1.07015   2.54807
H    -2.08398  -1.91230   3.40012
H    -2.73524  -0.88119  -1.62665
H    -3.06928   1.80124  -2.04811
H    -2.93613   0.71744  -3.44168
H    -1.01148   2.83275  -2.84640
H    -0.79889   1.52298  -4.00555
H     0.99428   1.12512  -2.42928
H    -0.70791  -0.71185  -3.34923
H    -0.08980  -1.25113  -1.76109
