31
Generated by autodE on: 2022-06-07. E = -821.334627 Ha
C     2.13355  -2.89752  -0.34721
O     1.80317  -1.50689  -0.30706
C     0.63978  -1.18802   0.28805
O    -0.10177  -2.05445   0.73972
C     0.37434   0.24407   0.35981
C     1.28601   1.33833   0.09239
O     0.92434   2.50948  -0.02424
O     2.58584   0.99373  -0.01715
C     3.49337   2.04665  -0.34783
N    -0.90554   0.61380   0.78780
C    -1.01162   1.56849   1.91096
C    -2.02201   0.06128   0.32624
C    -3.29816   0.22118   1.08418
C    -2.05572  -0.50273  -1.05893
C    -3.40831  -0.54070  -1.72540
O    -1.05108  -0.84690  -1.66793
H     1.37033  -3.46420  -0.90091
H     3.09880  -2.96270  -0.86392
H     2.22306  -3.31165   0.66817
H     3.21775   2.52128  -1.30161
H     3.51273   2.81365   0.44104
H     4.48067   1.57680  -0.43602
H    -1.35209   1.02100   2.80075
H    -0.02884   1.99588   2.11345
H    -1.72941   2.36301   1.67418
H    -4.03680  -0.52316   0.76751
H    -3.13191   0.10333   2.16381
H    -3.73710   1.22199   0.92561
H    -3.26139  -0.72648  -2.79678
H    -3.97661   0.38894  -1.57543
H    -4.00620  -1.36428  -1.30049
