20
Generated by autodE on: 2022-06-07. E = -3183.644363 Ha
F     1.14225  -0.94916   2.24491
C     1.29165  -1.03001   0.89991
F     2.22923  -0.13669   0.55397
F     1.80498  -2.25690   0.65620
C    -0.00617  -0.84163   0.20460
C    -0.47169   0.17633  -0.54280
Br    0.36541   1.78945  -1.03903
C    -1.94513  -0.06603  -0.81395
C    -2.66088   0.16565   0.55709
C    -2.14429  -1.01700   1.42420
C    -1.19138  -1.77386   0.44474
C    -1.94808  -1.60711  -0.88846
H    -2.36456   0.49370  -1.65746
H    -3.74990   0.11748   0.41362
H    -2.41933   1.15141   0.97899
H    -2.96654  -1.67983   1.73083
H    -1.61401  -0.69102   2.32905
H    -0.92086  -2.79073   0.75378
H    -2.96136  -2.03496  -0.86739
H    -1.39073  -1.99642  -1.75241
