51
Generated by autodE on: 2022-06-07. E = -4004.939604 Ha. Imaginary frequency = -275.9 cm-1
C     2.57832   0.22653   4.02986
O     2.06389  -0.26956   2.79018
C     1.90261   0.64025   1.80623
O     2.32233   1.77212   1.89035
C     1.36139  -0.04545   0.57930
C     2.40357  -0.09401  -0.47746
O     3.35887   0.66649  -0.51433
O     2.18190  -0.99925  -1.43607
C     3.10862  -1.03141  -2.52635
N     0.50246  -1.12779   0.76456
C     0.96000  -2.49868   0.42925
C    -0.78287  -0.99331   1.22815
C    -1.69765  -2.16636   1.02454
C    -1.06725  -0.13296   2.43423
C    -2.23531  -0.52323   3.30471
O    -0.34880   0.79782   2.76098
C    -1.54998   0.64250  -0.24129
Br   -2.90926   1.62324   0.73556
C    -2.08077  -0.13278  -1.44815
C    -2.53597   0.92212  -2.50056
C    -1.19247   1.54169  -2.97226
C    -0.13095   0.80292  -2.09209
C    -0.76200  -0.60332  -2.07946
C    -0.33638   1.25149  -0.63859
C     0.07198   2.64731  -0.26354
F    -0.71674   3.57695  -0.87622
F     1.32726   2.91994  -0.67173
F    -0.01093   2.91899   1.04037
H     1.91929   1.00984   4.43205
H     2.60457  -0.63099   4.71287
H     3.59098   0.63513   3.89751
H     2.75772  -1.82720  -3.19349
H     4.12282  -1.25593  -2.16628
H     3.11500  -0.06772  -3.05592
H     2.05170  -2.51406   0.43285
H     0.60817  -3.17438   1.21752
H     0.59441  -2.85727  -0.54050
H    -2.74066  -1.83792   1.09578
H    -1.54624  -2.94385   1.79219
H    -1.55720  -2.62365   0.03925
H    -2.34481   0.23091   4.09412
H    -3.17473  -0.61413   2.74586
H    -2.02986  -1.50517   3.76279
H    -2.83162  -0.89451  -1.21008
H    -3.22444   1.66191  -2.07101
H    -3.05910   0.41340  -3.32331
H    -1.15502   2.63117  -2.87268
H    -0.98687   1.29339  -4.02396
H     0.89058   0.90002  -2.47123
H    -0.21719  -1.33958  -1.49401
H    -0.90298  -0.99548  -3.09681
