26
Generated by autodE on: 2022-06-16. E = -478.311159 Ha
C     2.58895  -0.07640   0.33375
C     1.09804   0.12662   0.55223
C     0.20454  -0.83352  -0.25983
C     0.09625  -2.16397   0.34408
N     0.00847  -3.21687   0.82664
N    -1.11299  -0.17526  -0.33591
C    -1.72893  -0.29257  -1.64804
N    -0.96351   1.20185   0.08093
C    -1.62469   1.39976   1.36735
C     0.48600   1.48106   0.12906
C     1.00860   2.01469  -1.20176
H     2.86049   0.00538  -0.72941
H     2.89985  -1.07316   0.68491
H     3.16804   0.67269   0.89580
H     0.87047  -0.02104   1.61900
H     0.64268  -0.97421  -1.26602
H    -1.85671  -1.35963  -1.88798
H    -1.13210   0.17721  -2.45443
H    -2.72602   0.16984  -1.63327
H    -2.68765   1.13535   1.27498
H    -1.56394   2.46278   1.64501
H    -1.19200   0.79779   2.19090
H     0.66710   2.23491   0.90862
H     0.44000   2.91053  -1.49268
H     0.91136   1.27551  -2.01164
H     2.06998   2.29414  -1.12214
