14
Generated by autodE on: 2022-06-16. E = -320.964449 Ha
C    -2.34118  -0.98823  -0.01659
N    -1.77952   0.33420  -0.01718
N    -0.49484   0.37198  -0.00604
C     0.08508   1.73107  -0.00624
C     0.35458  -0.68413   0.00586
C     1.74178  -0.49106   0.01738
N     2.90631  -0.36580   0.02728
H    -3.43436  -0.90164  -0.02652
H    -2.03978  -1.56893   0.87726
H    -2.02444  -1.57628  -0.90030
H     0.69145   1.86670   0.89821
H     0.71588   1.85612  -0.89530
H    -0.74585   2.44084  -0.02178
H    -0.04137  -1.69516   0.00704
