14
Generated by autodE on: 2022-07-27. E = -320.957517 Ha
C    -1.24687   1.21936   0.70221
N    -0.82520   1.09589  -0.66750
N     0.04491   0.18506  -0.91338
C     0.44314   0.10667  -2.34004
C     0.67071  -0.71900  -0.11998
C     0.53033  -0.92030   1.26165
N     0.52056  -1.20549   2.39812
H    -1.72369   0.29620   1.07830
H    -1.98100   2.03295   0.75972
H    -0.40693   1.46315   1.37765
H     0.20918  -0.89436  -2.72284
H     1.52183   0.28944  -2.42106
H    -0.11961   0.86945  -2.88304
H     1.37506  -1.37270  -0.63308
