29
Generated by autodE on: 2022-06-17. E = -538.527351 Ha
C    -2.09475   2.00913   0.65912
C    -2.47829   0.67567   0.02648
C    -2.65489  -0.44692   1.06636
C    -1.21373  -0.91110   1.29085
N    -0.53024  -0.53614   0.04327
C     0.82616  -0.27836   0.00079
C     1.40640   0.45999  -1.05755
C     2.78227   0.68134  -1.09567
C     3.62635   0.17748  -0.09821
C     3.05940  -0.56063   0.94607
C     1.68401  -0.79159   1.00349
N    -1.39431   0.17319  -0.84335
C    -1.86271  -0.71186  -1.90929
H    -1.91335   2.76966  -0.11545
H    -1.17884   1.91604   1.26449
H    -2.90078   2.36851   1.31771
H    -3.38013   0.80491  -0.58839
H    -3.12969  -0.10106   1.99473
H    -3.26830  -1.26001   0.65174
H    -0.75069  -0.38827   2.14512
H    -1.14269  -1.99244   1.48760
H     0.76036   0.85731  -1.83841
H     3.20150   1.26019  -1.92342
H     4.70354   0.35304  -0.13699
H     3.69658  -0.96890   1.73539
H     1.27501  -1.38326   1.82284
H    -0.99686  -1.07740  -2.48035
H    -2.43172  -1.58818  -1.54260
H    -2.50402  -0.13869  -2.59530
