23
Generated by autodE on: 2022-07-27. E = -459.836174 Ha
C    -2.87798   1.85465   1.17998
C    -2.87164   0.76868   0.17524
N    -1.80834   0.02957  -0.03224
C    -1.90104  -1.03400  -1.06768
N    -0.74294   0.13648   0.77937
C     0.50641  -0.10165   0.25363
C     0.89346   0.07324  -1.10195
C     2.21034  -0.15094  -1.50866
C     3.19529  -0.53830  -0.59402
C     2.83670  -0.68718   0.75421
C     1.52642  -0.47406   1.17039
H    -1.98055   2.48801   1.07864
H    -2.84735   1.44496   2.20723
H    -3.78345   2.46852   1.07901
H    -3.76265   0.50640  -0.39637
H    -1.15758  -1.80703  -0.85015
H    -1.73031  -0.62210  -2.06879
H    -2.90668  -1.46820  -1.02184
H     0.16598   0.42123  -1.83567
H     2.47117  -0.00545  -2.56096
H     4.22349  -0.70973  -0.92010
H     3.59096  -0.97948   1.49027
H     1.25019  -0.59426   2.22080
