34
Generated by autodE on: 2022-05-30. E = -1598.034207 Ha
C     3.55989   1.59958   1.30829
N     2.81694   0.78683   0.36892
C     2.41761  -0.46586   0.62409
O     2.70993  -1.11296   1.63560
C     1.59756  -1.13979  -0.48061
C     2.51839  -2.11894  -1.21576
O     1.10827  -0.12573  -1.38478
C    -0.08994  -0.56527  -2.00276
C     0.19108  -1.17577  -3.31830
N     0.41226  -1.63293  -4.36124
C    -0.75653  -1.55893  -1.02953
C    -1.91567  -1.02076  -0.13182
O    -1.72753  -1.83114   1.03966
C    -0.39739  -1.37864   1.33642
C    -0.61467   0.13605   1.32456
Cl    0.20601   1.21416   2.37326
C    -1.56501   0.36842   0.40557
C    -2.22867   1.63305  -0.00964
F    -1.83470   2.68820   0.71342
F    -1.99239   1.93341  -1.30872
F    -3.56788   1.53470   0.11384
C     0.33472  -1.85135   0.03624
H     3.86371   0.97525   2.15679
H     2.94323   2.43236   1.68209
H     4.45970   2.01889   0.83309
H     2.43586   1.22379  -0.46494
H     3.32424  -1.56642  -1.71985
H     1.95940  -2.70015  -1.96295
H     2.96012  -2.81871  -0.49279
H    -0.71151   0.32039  -2.19436
H    -1.09749  -2.46417  -1.54281
H    -2.92225  -1.13216  -0.54692
H    -0.01240  -1.79701   2.26994
H     0.51661  -2.92507   0.15024
