18
Generated by autodE on: 2022-05-30. E = -493.559348 Ha
C    -3.48776   0.30803  -1.01261
N    -2.04971   0.26982  -0.84795
C    -1.48894  -0.15870   0.30079
O    -2.15769  -0.54856   1.27082
C    -0.00803  -0.15073   0.37214
C     0.72387  -0.60449   1.57012
O     0.58517   0.27979  -0.69466
C     1.85313   0.45215  -1.04971
C     2.96713   0.18378  -0.24921
N     3.96696  -0.00435   0.33539
H    -3.95820   0.99254  -0.28786
H    -3.93230  -0.68971  -0.86879
H    -3.71930   0.65503  -2.02673
H    -1.45162   0.58509  -1.60362
H     1.34625   0.20697   1.98564
H     0.00363  -0.93040   2.32855
H     1.39948  -1.44238   1.32520
H     1.96457   0.84207  -2.05948
