34
Generated by autodE on: 2022-05-30. E = -1597.904261 Ha. Imaginary frequency = -276.7 cm-1
C     3.33426   1.69555   1.62910
N     2.65308   1.04992   0.52584
C     2.73008  -0.28175   0.34621
O     3.46730  -1.01423   1.02093
C     1.90371  -0.85927  -0.75315
C     2.38174  -2.08679  -1.44222
O     1.08351   0.00018  -1.30137
C     0.13104  -0.20337  -2.21105
C     0.24620  -1.10755  -3.28709
N     0.23101  -1.83666  -4.20144
C    -0.97631  -1.89169  -0.65094
C    -2.13140  -1.12883   0.03833
O    -2.11957  -1.77797   1.33258
C    -0.72915  -1.48785   1.60216
C    -0.77426   0.04013   1.44316
Cl    0.10666   1.12396   2.43181
C    -1.63527   0.27645   0.44490
C    -2.07403   1.56871  -0.13873
F    -1.07717   2.47418  -0.19314
F    -2.53780   1.40755  -1.39609
F    -3.07232   2.13834   0.56737
C    -0.06464  -2.09723   0.34468
H     3.06558   1.23403   2.59264
H     3.05100   2.75471   1.64971
H     4.42744   1.62427   1.51402
H     1.95025   1.56772   0.00867
H     3.00467  -1.79695  -2.30858
H     1.57472  -2.73178  -1.80631
H     3.00747  -2.65333  -0.74260
H    -0.49876   0.67155  -2.35982
H    -1.09223  -2.43114  -1.58625
H    -3.11275  -1.17355  -0.44342
H    -0.39629  -1.86423   2.57383
H     0.73682  -2.82743   0.40424
