46
Generated by autodE on: 2022-06-21. E = -1143.409911 Ha
C    -1.93886   4.26330   1.40862
O    -1.36432   3.36467   0.44634
C    -1.79120   2.09998   0.46812
O    -2.63056   1.69602   1.24605
C    -1.08135   1.23076  -0.58913
C    -1.19343   1.93475  -1.94684
C     0.37508   0.98110  -0.11706
C     1.32379   0.60484  -1.26327
C     2.51300  -0.17472  -0.76739
C     3.74776  -0.30973  -1.55334
N     3.75391   0.27538  -2.77858
O     4.75423  -0.92605  -1.14651
C     2.44495  -0.85146   0.41442
N     1.36656  -0.89088   1.23729
C     1.42415  -1.54231   2.53622
C     0.18121  -0.12306   0.93839
C    -1.06790  -0.96280   0.41503
C    -2.01521  -1.19315   1.53543
N    -2.79256  -1.37484   2.37765
C    -0.62636  -2.38649  -0.06560
C    -0.14166  -2.55092  -1.47009
O    -0.66578  -3.30632   0.72845
N    -1.61392  -0.13037  -0.63181
C    -2.97116  -0.38777  -1.07076
H    -1.73607   3.91084   2.43009
H    -3.02487   4.34260   1.25719
H    -1.45949   5.23414   1.23905
H    -0.84447   1.27445  -2.75023
H    -0.58739   2.84944  -1.94834
H    -2.23468   2.21756  -2.15734
H     0.77359   1.87017   0.38829
H     1.64597   1.53618  -1.75293
H     0.77965   0.02792  -2.02793
H     4.58143   0.17759  -3.35616
H     2.94246   0.73621  -3.16964
H     3.30811  -1.42679   0.75425
H     1.39377  -0.79965   3.35236
H     0.57540  -2.23075   2.66361
H     2.35444  -2.11897   2.61517
H    -0.14484   0.35411   1.87286
H    -0.11381  -3.61970  -1.71738
H     0.88226  -2.14710  -1.53660
H    -0.76306  -1.99164  -2.18026
H    -3.15580   0.11365  -2.03061
H    -3.10237  -1.46877  -1.23427
H    -3.73975  -0.05460  -0.34946
