20
Generated by autodE on: 2022-06-21. E = -457.715334 Ha
C     3.06305   0.84760   0.00787
N     1.80344   0.17677  -0.26963
C     1.71918  -0.71637  -1.34495
C     0.56907  -1.30415  -1.71099
C    -0.74163  -1.06331  -1.00350
C    -0.56152  -0.05280   0.11807
C    -1.69937   0.37866   0.94653
N    -2.89646  -0.18903   0.65390
O    -1.60404   1.21503   1.86797
C     0.65797   0.48617   0.40079
H     3.87790   0.11358   0.10298
H     2.98084   1.40018   0.95220
H     3.32896   1.55803  -0.79331
H     2.66163  -0.90105  -1.86372
H     0.58468  -1.99351  -2.55823
H    -1.14554  -2.02075  -0.61381
H    -1.50615  -0.71701  -1.72866
H    -3.01196  -0.87446  -0.08140
H    -3.70798   0.07936   1.19944
H     0.75952   1.21035   1.21061
