26
Generated by autodE on: 2022-07-27. E = -685.640307 Ha
C    -1.09445   3.34194   1.22887
O    -0.90384   2.50476   0.07175
C     0.09203   1.63419   0.12267
O     0.88141   1.52049   1.03388
C     0.17674   0.83535  -1.15309
C     0.25215   1.56808  -2.44506
N     0.22775  -0.47150  -1.08449
C     0.46262  -1.23487  -2.32805
C    -0.08768  -1.19454   0.09732
C    -1.16335  -0.72920   0.87614
N    -2.05667  -0.33089   1.51956
C     0.67613  -2.30586   0.59515
C     1.96561  -2.72238  -0.08150
O     0.30073  -2.91040   1.61739
H    -1.31237   2.71623   2.10552
H    -1.94901   3.98535   0.99370
H    -0.19498   3.94562   1.41258
H     1.19525   1.33836  -2.96714
H     0.18966   2.64894  -2.27942
H    -0.57269   1.25930  -3.11048
H     1.44737  -0.98817  -2.74401
H    -0.31615  -0.96837  -3.05554
H     0.38574  -2.30149  -2.11243
H     2.47238  -1.90537  -0.61152
H     2.63447  -3.12356   0.69277
H     1.76802  -3.53310  -0.80164
