46
Generated by autodE on: 2022-06-21. E = -1143.346695 Ha. Imaginary frequency = -256.9 cm-1
C    -3.49035   3.13620   1.24752
O    -2.78902   2.28243   0.32857
C    -1.47222   2.16931   0.50063
O    -0.84489   2.79617   1.32288
C    -0.91715   1.23288  -0.58495
C    -1.02965   1.93512  -1.91939
C     1.14741   1.44120  -0.19592
C     1.95161   0.96441  -1.39211
C     2.35850  -0.48337  -1.23486
C     2.74886  -1.33374  -2.38462
N     2.82600  -0.72206  -3.58747
O     2.97554  -2.55019  -2.26276
C     2.41139  -1.04267  -0.00582
N     2.00203  -0.37718   1.13968
C     2.01613  -1.07875   2.42275
C     1.33366   0.79467   1.02584
C    -1.37292  -0.77258   0.72338
C    -2.04956  -0.16424   1.80457
N    -2.58426   0.31343   2.73128
C    -0.94314  -2.11526   0.99058
C    -0.17160  -2.95392  -0.00791
O    -1.20096  -2.64499   2.10033
N    -1.28150  -0.07993  -0.52037
C    -1.36847  -0.84024  -1.76918
H    -3.38801   2.74107   2.26798
H    -4.53969   3.11729   0.93268
H    -3.09195   4.15920   1.19826
H    -0.45584   1.43891  -2.71009
H    -0.67387   2.96941  -1.82479
H    -2.08702   1.96107  -2.22723
H     0.99459   2.51710  -0.11536
H     2.85278   1.59931  -1.50306
H     1.38488   1.11177  -2.32179
H     3.09472  -1.27461  -4.39517
H     2.70002   0.27553  -3.70651
H     2.76055  -2.06318   0.14256
H     1.08317  -1.64265   2.56607
H     2.12150  -0.34820   3.23481
H     2.86756  -1.76959   2.44978
H     0.95652   1.22146   1.95453
H     0.35584  -2.39947  -0.78646
H     0.55425  -3.55429   0.55883
H    -0.86883  -3.65794  -0.49282
H    -0.37261  -1.02741  -2.20338
H    -1.97557  -0.29349  -2.50162
H    -1.86458  -1.79399  -1.57256
