42
Generated by autodE on: 2022-12-30. E = -1181.891441 Ha
C     3.30090  -1.42764  -3.03003
N     2.74647  -1.18519  -1.71441
C     2.43755   0.05926  -1.29194
O     2.61116   1.06448  -2.00668
C     1.86131   0.17719   0.05326
C     1.42321  -0.77388   0.91314
O     1.46652  -2.09622   0.73508
C     1.54867  -2.94252   1.89611
C     0.71194  -0.01704   2.03536
O     1.50708   1.16680   2.10334
C     1.44883   1.49068   0.69717
C    -0.08579   1.70203   0.52902
C    -0.66443   1.39428  -0.84922
C    -1.73991   2.37777  -1.32861
C    -2.74566   1.85519  -2.31218
O    -1.70985   3.53822  -0.96152
O    -1.14668   0.04352  -0.79343
C    -1.53410  -0.25773   0.53495
C    -2.95036   0.12817   0.74568
N    -4.06275   0.42489   0.88771
C    -1.48277  -1.79392   0.78215
C    -1.39684  -2.67493  -0.41805
O    -1.56254  -2.18031   1.92898
C    -0.62858   0.59167   1.46892
H     3.44996  -2.50663  -3.15886
H     4.27045  -0.92009  -3.15963
H     2.62583  -1.06695  -3.82286
H     2.55606  -1.96680  -1.09401
H     1.64497  -3.96552   1.51448
H     2.43492  -2.67829   2.49164
H     0.63919  -2.86074   2.50578
H     0.61964  -0.50843   3.00728
H     2.06657   2.36138   0.45655
H    -0.36444   2.70909   0.85657
H     0.10765   1.41896  -1.63687
H    -2.24615   1.26517  -3.09608
H    -3.30511   2.69057  -2.75270
H    -3.44693   1.17742  -1.79973
H    -2.28194  -2.49790  -1.05188
H    -1.35621  -3.72531  -0.10420
H    -0.51491  -2.41210  -1.01798
H    -1.20069   0.98987   2.31265
