24
Generated by autodE on: 2022-12-30. E = -630.223216 Ha
C     2.35735  -2.90955  -0.84109
N     1.27538  -1.99494  -0.54660
C     1.39265  -0.66233  -0.76408
O     2.43092  -0.16840  -1.24606
C     0.24611   0.16730  -0.41043
C    -0.90457  -0.11186   0.25084
O    -1.30985  -1.29364   0.70456
C    -2.58261  -1.38910   1.36081
C    -1.59999   1.25870   0.47550
C    -0.74368   2.01071   1.52012
C     0.39158   2.30116   0.87765
C     0.22012   1.70291  -0.53764
O    -1.19752   1.92024  -0.73105
H     2.03794  -3.92984  -0.59459
H     3.26195  -2.67453  -0.25569
H     2.63451  -2.87757  -1.90741
H     0.42424  -2.34664  -0.12024
H    -2.68351  -2.43446   1.67522
H    -3.39599  -1.13068   0.66664
H    -2.61395  -0.73342   2.24344
H    -2.68560   1.25636   0.61197
H    -1.03117   2.18422   2.55617
H     1.29409   2.78745   1.24680
H     0.82185   2.13178  -1.34509
