42
Generated by autodE on: 2022-12-30. E = -1181.774595 Ha. Imaginary frequency = -178.7 cm-1
C     2.81542  -1.61156  -2.88976
N     2.64288  -1.22397  -1.50402
C     2.30919   0.04405  -1.16433
O     2.31551   0.97006  -1.99978
C     1.93327   0.28592   0.22430
C     1.47581  -0.54974   1.19151
O     1.33000  -1.86593   1.12722
C     0.83642  -2.56705   2.28023
C     1.03172   0.36568   2.34865
O     2.01008   1.41035   2.21660
C     1.72761   1.68480   0.82241
C     0.20561   1.97679   0.92164
C    -0.79984   1.32303  -1.11897
C    -1.98458   2.24017  -1.15908
C    -3.27869   1.71131  -1.72297
O    -1.83523   3.42048  -0.88574
O    -0.86391   0.03136  -0.98373
C    -1.64293  -0.67340  -0.13965
C    -2.67980  -0.08587   0.61339
N    -3.55110   0.36537   1.24838
C    -1.47602  -2.12011  -0.13935
C    -0.58739  -2.73658  -1.18399
O    -2.10204  -2.80088   0.67764
C    -0.23263   1.10766   1.87296
H     1.88537  -1.48079  -3.46915
H     3.10943  -2.66769  -2.92948
H     3.60066  -1.00972  -3.37106
H     2.50767  -1.95265  -0.80968
H     0.72823  -3.61312   1.97300
H     1.55582  -2.49260   3.10885
H    -0.14232  -2.17031   2.58353
H     1.00234  -0.06184   3.35453
H     2.35406   2.48602   0.42000
H    -0.27389   2.88982   0.57166
H     0.08158   1.63543  -1.68903
H    -3.22750   0.66625  -2.05384
H    -3.54481   2.35334  -2.57698
H    -4.06974   1.81182  -0.96369
H    -1.18314  -2.86617  -2.10424
H    -0.25806  -3.72564  -0.83977
H     0.27533  -2.11008  -1.43110
H    -1.20950   1.03191   2.34270
