26
Generated by autodE on: 2022-06-22. E = -689.460846 Ha
C    -2.65176  -2.06278   0.49542
O    -1.22034  -2.04731   0.49927
C    -0.51023  -0.96116   0.19485
C    -0.94082   0.25847  -0.23526
O    -2.25425   0.54081  -0.47967
C    -2.89136   1.42002   0.45299
C     0.03303   1.32697  -0.54655
O    -0.36926   2.40355  -0.98433
C     1.49298   1.08449  -0.33997
C     2.43283   2.21137  -0.63189
C     1.93345  -0.12846   0.07700
C     3.38823  -0.42528   0.27256
C     0.96419  -1.21785   0.36044
O     1.33178  -2.32191   0.73802
H    -2.92992  -3.07475   0.81605
H    -3.05468  -1.32859   1.20769
H    -3.04710  -1.86839  -0.50978
H    -3.92947   1.53639   0.11454
H    -2.40205   2.40483   0.47513
H    -2.88450   0.98287   1.46540
H     1.88973   3.11440  -0.93357
H     3.13339   1.93443  -1.43747
H     3.04880   2.44301   0.25251
H     3.94885  -0.26000  -0.66213
H     3.82600   0.25058   1.02577
H     3.54194  -1.46090   0.59781
