42
Generated by autodE on: 2022-06-22. E = -1331.164982 Ha. Imaginary frequency = -329.8 cm-1
C     3.71557  -1.58372   2.77872
O     3.13656  -1.07174   1.56061
C     2.03286  -0.36495   1.68216
O     1.47320  -0.07021   2.71432
C     1.46392   0.03226   0.34596
N     0.70686   1.19315   0.32091
C     0.62426   1.54233  -0.99041
C    -0.23491   2.52022  -1.52953
N    -0.96454   3.28773  -2.01085
C     1.80383   0.99238  -1.65424
O     2.28458   1.17287  -2.74155
O     2.36061   0.13427  -0.70985
C    -0.19067  -0.82105  -1.53158
C     0.38545  -1.26990  -2.83495
C    -1.49510  -0.15676  -1.60749
O    -2.02198   0.15831  -2.67416
C    -2.20317   0.16044  -0.32529
O    -3.19112   1.02826  -0.51162
C    -3.78611   1.74689   0.57837
C    -1.84325  -0.46964   0.83690
O    -2.59457  -0.37235   1.96542
C    -1.95289   0.19472   3.11559
C    -0.70895  -1.40808   0.85198
O    -0.55600  -2.18610   1.78563
C     0.30357  -1.33942  -0.27555
C     1.18836  -2.57481  -0.35400
H     2.99001  -2.23125   3.28986
H     4.59643  -2.15624   2.47022
H     4.00418  -0.75124   3.43468
H     0.02136   1.42430   1.04149
H    -0.05913  -2.24660  -3.10170
H     0.13764  -0.56289  -3.63583
H     1.47131  -1.41319  -2.79216
H    -4.36848   2.55037   0.11047
H    -3.00596   2.18107   1.22064
H    -4.44466   1.09868   1.16887
H    -1.11836  -0.43120   3.45915
H    -2.71892   0.25123   3.89956
H    -1.58575   1.20922   2.88810
H     0.64358  -3.38127  -0.86717
H     1.45161  -2.92637   0.64959
H     2.10934  -2.37402  -0.91289
