16
Generated by autodE on: 2022-06-06. E = -3218.294999 Ha
F     2.27146   0.02230  -0.48667
C     1.55473  -1.07949  -0.22710
F     1.52386  -1.81805  -1.35995
F     2.24435  -1.80378   0.67862
C     0.17939  -0.78740   0.23966
C    -0.53125   0.34368   0.31368
Br   -0.09857   2.11473  -0.08302
C    -1.97207  -0.09993   0.69012
C    -2.53826  -0.82457  -0.55214
C    -1.83694  -1.95855  -0.63076
C    -0.85545  -1.90161   0.56103
O    -1.65788  -1.21354   1.53479
H    -2.59936   0.64767   1.18585
H    -3.30228  -0.42154  -1.21537
H    -1.86611  -2.75144  -1.37687
H    -0.44750  -2.84411   0.94007
