52
Generated by autodE on: 2022-06-10. E = -9386.144890 Ha
C    -9.09817  -1.31016   2.68537
N    -7.69526  -1.54783   2.39379
C    -6.73547  -0.87270   3.02954
O    -6.94373   0.01721   3.84826
C    -5.25906  -1.13697   2.55483
C    -5.11276  -2.43787   1.86403
N    -5.05922  -3.40910   1.23286
O    -5.02786  -0.10674   1.61282
C    -3.87746   0.68400   1.95525
C    -2.69471   0.26037   1.02730
O    -1.53961   0.61013   1.24925
N    -3.04922  -0.51348  -0.00933
C    -2.06575  -1.00964  -0.95140
C    -4.29962   2.13223   1.75511
C    -5.27529   2.66211   2.61131
C    -5.71977   3.97335   2.44304
C    -5.20146   4.76327   1.41036
C    -4.24331   4.22981   0.54453
C    -3.79488   2.91662   0.71389
C    -3.55106   0.24223   3.39775
C    -4.24019  -0.89478   3.67849
C    -4.06828  -1.93202   4.76809
Br   -2.75488  -3.28155   4.02456
Br   -5.76432  -2.95219   5.06548
C    -3.54765  -1.55129   6.14703
C    -4.34902  -0.50658   6.91445
C    -4.54125   0.82018   6.18961
C    -3.28953   1.50789   5.63821
C    -2.62278   1.02379   4.31180
Cl   -1.96505   2.54367   3.55465
Br   -0.93114  -0.04261   4.62051
H    -9.35888  -0.25499   2.51357
H    -9.32875  -1.55497   3.73420
H    -9.70689  -1.94218   2.02856
H    -7.45107  -2.27782   1.73177
H    -4.02762  -0.75593  -0.11996
H    -1.61446  -0.18856  -1.53164
H    -2.55674  -1.70485  -1.64290
H    -1.25559  -1.53885  -0.42666
H    -5.68897   2.04079   3.40668
H    -6.47387   4.38105   3.12025
H    -5.54680   5.79151   1.27973
H    -3.83823   4.83808  -0.26743
H    -3.02971   2.52279   0.04383
H    -2.51619  -1.20570   6.02417
H    -3.48476  -2.47854   6.73243
H    -3.80620  -0.33689   7.85881
H    -5.33559  -0.91218   7.18881
H    -4.97447   1.53543   6.90667
H    -5.29077   0.71538   5.39382
H    -2.50091   1.57509   6.40238
H    -3.59005   2.53963   5.41744
