32
Generated by autodE on: 2022-06-10. E = -893.512898 Ha
C    -2.79506   1.69603   0.03002
N    -2.08971   1.59128  -1.23535
C    -1.02259   0.83059  -1.48652
O    -0.36317   0.84182  -2.52834
C    -0.59195  -0.17253  -0.43340
O     0.50274   0.00624   0.21344
C     1.36897   1.03864   0.32635
C     1.09828   2.29253  -0.22563
N     0.90931   3.36207  -0.65589
C     2.52104   0.71221   1.17241
O     2.63243  -0.41041   1.69359
N     3.43523   1.70057   1.33668
C     4.63486   1.54574   2.13097
C    -1.24043  -1.45206  -0.26850
C    -0.68215  -2.42594   0.59374
C    -1.31137  -3.65411   0.75245
C    -2.50009  -3.93419   0.06272
C    -3.05834  -2.97662  -0.79094
C    -2.43805  -1.74121  -0.95952
H    -2.30341   1.07599   0.79058
H    -3.83944   1.36477  -0.07110
H    -2.78417   2.73842   0.38126
H    -2.36105   2.22296  -1.98811
H     3.28700   2.58924   0.86935
H     5.54190   1.64206   1.51199
H     4.62874   0.55022   2.58962
H     4.68211   2.30238   2.93039
H     0.24326  -2.20006   1.12508
H    -0.87636  -4.40281   1.41782
H    -2.99074  -4.90127   0.19279
H    -3.98344  -3.19410  -1.32850
H    -2.88192  -1.00077  -1.62648
