32
Generated by autodE on: 2022-07-27. E = -893.515536 Ha
C     3.18107  -1.16693  -2.43308
N     2.10513  -0.34480  -1.90664
C     1.71388  -0.44806  -0.63451
O     2.22381  -1.19606   0.20335
C     0.55716   0.41737  -0.19452
O    -0.49764  -0.14849   0.27780
C    -0.94214  -1.42363   0.32284
C    -0.33719  -2.44661  -0.41342
N     0.12743  -3.32588  -1.03437
C    -2.20250  -1.54892   1.06130
O    -2.76271  -0.55796   1.56045
N    -2.71615  -2.79718   1.16957
C    -3.93819  -3.04649   1.90598
C     0.60789   1.85773  -0.10227
C    -0.51018   2.57352   0.39185
C    -0.46373   3.95836   0.48545
C     0.68776   4.65579   0.09160
C     1.79797   3.95710  -0.39396
C     1.76565   2.56815  -0.49249
H     4.12028  -0.97831  -1.89114
H     3.32262  -0.92640  -3.49293
H     2.93221  -2.23502  -2.33368
H     1.61743   0.30232  -2.52038
H    -2.19318  -3.58948   0.81211
H    -3.82017  -2.83790   2.98288
H    -4.21630  -4.10041   1.78299
H    -4.76125  -2.41910   1.53069
H    -1.40110   2.02436   0.69883
H    -1.32974   4.50391   0.86612
H     0.71749   5.74508   0.16525
H     2.69698   4.49810  -0.69598
H     2.63972   2.03477  -0.86638
