52
Generated by autodE on: 2022-06-10. E = -9386.040838 Ha. Imaginary frequency = -211.0 cm-1
C    -9.04711  -2.59715   3.01277
N    -7.70518  -2.36288   2.52083
C    -7.21833  -1.11034   2.37799
O    -7.90743  -0.09569   2.51772
C    -5.77822  -1.00985   2.00493
C    -5.13615  -2.07922   1.33150
N    -4.67065  -2.97612   0.74765
O    -5.45574   0.25711   1.70541
C    -4.32013   0.83407   1.44646
C    -3.17320   0.00498   0.86664
O    -2.54582  -0.82417   1.51727
N    -2.97082   0.22555  -0.44330
C    -1.99926  -0.55587  -1.18720
C    -4.39574   2.27888   1.30769
C    -5.61547   2.94516   1.56612
C    -5.68224   4.32997   1.49494
C    -4.54071   5.07622   1.16830
C    -3.33349   4.42519   0.90061
C    -3.25659   3.03578   0.96598
C    -3.79007   0.33374   3.93425
C    -4.45861  -0.68260   4.16844
C    -4.85965  -1.70310   5.12890
Br   -4.82773  -3.53101   4.31525
Br   -6.72418  -1.34678   5.74347
C    -3.91142  -1.75618   6.34061
C    -3.96069  -0.60159   7.35011
C    -3.82155   0.83703   6.84272
C    -2.58860   1.10485   5.95769
C    -2.94795   1.39014   4.49179
Cl   -3.83179   2.98676   4.42073
Br   -1.23753   1.58741   3.48495
H    -9.76522  -1.96505   2.47264
H    -9.13461  -2.37323   4.08990
H    -9.30860  -3.65040   2.85049
H    -7.04717  -3.13503   2.55233
H    -3.52378   0.92615  -0.92799
H    -2.00585  -0.22490  -2.23218
H    -2.24974  -1.62765  -1.14469
H    -0.98828  -0.42311  -0.77222
H    -6.49510   2.36095   1.83620
H    -6.62727   4.83766   1.69942
H    -4.59644   6.16605   1.12000
H    -2.44282   5.00252   0.64460
H    -2.30603   2.54332   0.76994
H    -2.89922  -1.85587   5.91754
H    -4.12060  -2.68714   6.88587
H    -3.14606  -0.80821   8.06413
H    -4.89585  -0.67322   7.92641
H    -3.77029   1.49318   7.72439
H    -4.73697   1.13858   6.31231
H    -1.90945   0.23913   5.96130
H    -2.01288   1.96562   6.32434
