26
Generated by autodE on: 2022-10-26. E = -632.165277 Ha
C    -1.25803  -0.45142  -1.16571
O    -0.01265  -0.66008  -0.90915
N     0.64398  -0.10818   0.15292
C     1.95693  -0.52622   0.12805
C     2.77625  -0.03882   1.17831
C     4.12009  -0.39137   1.25767
C     4.69681  -1.23787   0.30039
C     3.89603  -1.72432  -0.74048
C     2.54774  -1.38183  -0.83640
C    -2.20965   0.35291  -0.46435
C    -3.51891   0.37712  -1.01725
C    -4.52513   1.12520  -0.42238
C    -4.25443   1.86751   0.73688
C    -2.97106   1.85378   1.29312
C    -1.94917   1.10803   0.70843
H    -1.56689  -0.99590  -2.06169
H     2.32924   0.62101   1.92550
H     4.72757  -0.00060   2.07836
H     5.75170  -1.51288   0.36503
H     4.32971  -2.38552  -1.49589
H     1.94474  -1.77220  -1.65607
H    -3.72530  -0.20186  -1.92041
H    -5.52658   1.13476  -0.85781
H    -5.04684   2.45595   1.20497
H    -2.76302   2.43238   2.19594
H    -0.95017   1.09158   1.13324
