8
Generated by autodE on: 2022-10-21. E = -651.547891 Ha
C    -2.80684   0.55074  -0.42521
O    -1.87591  -0.55280  -0.54924
C    -0.64539  -0.30464  -0.22212
C     0.51401  -0.11454   0.07345
Cl    2.10141   0.13593   0.47639
H    -2.49096   1.38050  -1.07456
H    -3.77984   0.16240  -0.74745
H    -2.85465   0.88296   0.62227
