20
Generated by autodE on: 2022-10-06. E = -851.707362 Ha
C    -2.80638   0.59536  -0.62875
C    -1.47493  -0.06659  -0.43465
O    -1.32989  -1.28250  -1.22860
N    -0.07148  -1.70316  -0.73990
O    -0.35579  -1.71446   0.71471
C    -1.23001  -0.69490   0.93762
O    -1.68507  -0.45574   2.02426
C     0.79286  -0.49662  -0.99461
C     2.07123  -0.48516  -0.10855
O     3.14199  -0.75850  -0.70226
O     1.92966  -0.20697   1.10589
C    -0.19592   0.69225  -0.84363
C     0.26080   1.87933   0.02708
O     1.30324   2.45993  -0.36668
O    -0.45599   2.20482   1.00753
H    -2.86163   1.46524   0.03933
H    -2.90923   0.93995  -1.66776
H    -3.62862  -0.09399  -0.38835
H     1.10747  -0.62566  -2.03542
H    -0.39079   1.10342  -1.84556
