10
Generated by autodE on: 2022-10-06. E = -396.601723 Ha
C    -2.18241  -0.48001  -0.07756
C    -0.71865  -0.31747  -0.04457
O     0.09480  -1.36005  -0.10410
N     1.37999  -1.03843  -0.04932
O     1.39417   0.29053   0.05353
C     0.09302   0.84577   0.06613
O    -0.10510   2.03956   0.15131
H    -2.63589   0.45013  -0.44767
H    -2.46738  -1.31609  -0.73185
H    -2.57942  -0.67681   0.93321
