20
Generated by autodE on: 2022-10-06. E = -851.637548 Ha. Imaginary frequency = -356.3 cm-1
C    -2.96535   0.43824  -0.63014
C    -1.75317  -0.36245  -0.35750
O    -1.38516  -1.33054  -1.21075
N    -0.29184  -1.97311  -0.72637
O    -0.36171  -1.78092   0.63173
C    -1.22627  -0.74134   0.93715
O    -1.41316  -0.35952   2.07157
C     1.00057  -0.11987  -1.15177
C     2.17161  -0.44201  -0.24985
O     2.02258  -0.26411   0.98848
O     3.20812  -0.87829  -0.81985
C     0.08148   0.89129  -0.88887
C     0.24598   2.00743   0.15162
O     1.36367   2.58187   0.16135
O    -0.75863   2.33876   0.83275
H    -3.86828  -0.09482  -0.28765
H    -3.05720   0.64982  -1.70415
H    -2.88057   1.38139  -0.07532
H     1.06558  -0.51936  -2.16538
H    -0.53998   1.20963  -1.73347
