10
Generated by autodE on: 2022-10-06. E = -455.046572 Ha
O    -0.99819  -1.22651   0.20185
C    -1.56066  -0.17746  -0.22175
O    -2.79747  -0.05159  -0.45300
C    -0.71310   1.04633  -0.47991
C     0.60988   1.15198  -0.27067
C     1.55737   0.08792   0.25061
O     2.16927  -0.58711  -0.61772
O     1.71686   0.02888   1.49693
H    -1.26431   1.91095  -0.86762
H     1.09731   2.10949  -0.50168
