47
Generated by autodE on: 2022-06-02. E = -1330.810781 Ha
C    -4.03974   0.80027   2.86479
N    -2.92236   0.12382   2.23031
C    -2.32512   0.62545   1.14734
O    -2.66258   1.70823   0.64676
C    -1.21238  -0.23030   0.51047
C    -1.84424  -0.91199  -0.75009
C    -3.07573  -1.73771  -0.52883
O    -1.34429  -0.76514  -1.84454
N    -0.79149  -1.29356   1.43074
C     0.49173  -1.77770   0.92354
C     0.24761  -2.93958   0.04991
N    -0.02094  -3.91981  -0.50905
C     1.24473  -0.54088   0.30205
C     2.01703  -0.92143  -0.95420
O     1.56004  -1.59155  -1.85558
O     3.29216  -0.53970  -0.90447
C     4.09196  -0.81539  -2.06206
C     2.11448   0.10859   1.45194
C     2.75969   1.39186   0.95756
C     1.76603   2.28389   0.88648
C     0.52518   1.53271   1.33098
O     1.06409   0.61637   2.29168
C     0.10463   0.54959   0.14496
C     0.14290   1.33017  -1.17832
O     1.11097   1.24292  -1.94540
N    -0.85540   2.19871  -1.37605
C    -0.93035   2.99145  -2.58564
H    -3.76817   1.83398   3.12305
H    -4.30475   0.25860   3.78031
H    -4.91597   0.83076   2.19749
H    -2.66601  -0.80915   2.53870
H    -3.02869  -2.29642   0.41396
H    -3.21807  -2.41623  -1.37946
H    -3.94161  -1.05530  -0.47514
H    -0.57990  -0.85246   2.32668
H     1.08029  -2.17362   1.76343
H     5.09209  -0.42742  -1.83770
H     4.13481  -1.89694  -2.25351
H     3.67058  -0.30256  -2.93875
H     2.74496  -0.61058   1.98508
H     3.80204   1.50130   0.66823
H     1.78087   3.30432   0.50641
H    -0.30027   2.11827   1.74560
H    -1.64529   2.17469  -0.71968
H    -1.77560   3.68644  -2.50447
H    -1.07777   2.35788  -3.47677
H    -0.00687   3.57166  -2.73472
