21
Generated by autodE on: 2022-07-27. E = -587.118573 Ha
C    -2.33665   2.68370   1.79945
N    -1.70727   1.83473   0.80548
C    -0.74407   0.96432   1.14576
O    -0.35190   0.87223   2.32984
C    -0.10623   0.08937   0.12244
N     0.85966  -0.65138   0.72785
C     1.79894  -1.52478   0.42838
C     2.24951  -1.98975  -0.82801
N     2.82533  -2.46502  -1.72616
C    -0.43348  -0.13107  -1.26985
C    -1.50261   0.67627  -1.96526
O     0.16174  -1.01694  -1.89846
H    -2.83753   2.08581   2.57701
H    -3.08348   3.31233   1.30007
H    -1.59825   3.33325   2.29492
H    -2.01611   1.90502  -0.15458
H     0.81768  -0.40979   1.74089
H     2.36812  -1.89390   1.28500
H    -1.25952   1.75087  -1.95549
H    -2.48603   0.53204  -1.49024
H    -1.56472   0.33993  -3.00780
