47
Generated by autodE on: 2022-06-02. E = -1330.750373 Ha. Imaginary frequency = -304.3 cm-1
C    -3.67507   1.86997   2.26889
N    -2.99311   1.06444   1.27125
C    -2.33850  -0.04930   1.64100
O    -2.35077  -0.48148   2.80209
C    -1.50110  -0.75785   0.60449
C    -1.93208  -1.05671  -0.78271
C    -3.16453  -0.41941  -1.36148
O    -1.28605  -1.86794  -1.43817
N    -0.60047  -1.57658   1.21463
C     0.57920  -2.05643   0.77062
C     0.82243  -2.84327  -0.39428
N     1.24642  -3.54291  -1.22345
C     1.36859   0.00161   0.12867
C     2.23332  -0.45859  -0.96501
O     1.92164  -0.58525  -2.14226
O     3.45085  -0.77895  -0.51446
C     4.38274  -1.29962  -1.47408
C     2.00826   0.39066   1.49878
C     2.54267   1.82122   1.33456
C     1.44976   2.59027   1.26581
C     0.27064   1.61454   1.39874
O     0.82365   0.61984   2.27088
C     0.21843   0.82392   0.05763
C    -0.48594   1.49160  -1.06769
O    -1.31861   2.38927  -0.80415
N    -0.23136   1.10449  -2.32157
C    -0.91855   1.68615  -3.45651
H    -2.96721   2.30095   2.99752
H    -4.20523   2.68553   1.76164
H    -4.40363   1.26034   2.82152
H    -2.67556   1.54536   0.42617
H    -3.05827   0.67080  -1.45530
H    -3.33393  -0.84994  -2.35613
H    -4.03474  -0.60830  -0.71553
H    -0.59777  -1.39294   2.22300
H     1.25889  -2.33321   1.58200
H     5.30651  -1.49614  -0.91820
H     3.99478  -2.22992  -1.91237
H     4.56533  -0.56470  -2.27085
H     2.66435  -0.35353   1.95674
H     3.59297   2.08849   1.22547
H     1.35675   3.65949   1.07980
H    -0.67008   2.02065   1.77339
H     0.46508   0.36555  -2.46246
H    -0.43287   1.33904  -4.37709
H    -0.87594   2.78529  -3.42284
H    -1.97914   1.38804  -3.48521
