50
Generated by autodE on: 2022-06-24. E = -1370.803196 Ha
C    -4.69274  -0.60513   1.11409
O    -3.53181   0.14881   1.50212
C    -2.49671   0.25323   0.64381
C    -2.00087   1.48672   0.30930
O    -2.51453   2.67204   0.62654
C    -3.89428   2.83826   0.98693
C    -0.72947   1.62023  -0.44459
O    -0.29801   2.72989  -0.70336
C     0.05251   0.37609  -0.86631
C     0.70385   0.68156  -2.22108
C     1.16397   0.02794   0.21894
C     0.59267   0.03562   1.59655
N     0.18507  -0.06958   2.67773
C     2.36620   0.97000   0.18190
C     3.44592   0.70541  -0.67094
C     4.51738   1.59732  -0.74355
C     4.51883   2.76255   0.02941
C     3.44257   3.03016   0.87929
C     2.37216   2.13626   0.95800
N     1.49930  -1.34114  -0.14135
C     2.44770  -2.07955   0.67948
C     0.33836  -2.05133  -0.67765
C    -0.05105  -3.20643   0.18230
N    -0.11031  -4.17651   0.81515
C     0.74058  -2.67921  -1.96472
N     1.10513  -3.17305  -2.94762
C    -0.78078  -0.93922  -0.89868
C    -1.58546  -1.15784  -2.19388
C    -1.85514  -0.99536   0.20091
O    -2.26456  -2.06661   0.61834
H    -5.55541  -0.10003   1.57012
H    -4.62806  -1.63668   1.48428
H    -4.81135  -0.60701   0.02055
H    -4.08415   3.91600   0.90550
H    -4.54581   2.29312   0.28856
H    -4.07829   2.50151   2.01428
H     1.30980  -0.15806  -2.58133
H     1.34260   1.56603  -2.14360
H    -0.07651   0.89544  -2.96229
H     3.44717  -0.19843  -1.27916
H     5.35578   1.37847  -1.40851
H     5.35898   3.45834  -0.02806
H     3.43370   3.93670   1.48826
H     1.53661   2.35561   1.62550
H     2.75429  -2.99122   0.14803
H     3.34099  -1.46365   0.83851
H     2.03441  -2.36200   1.66438
H    -2.12062  -2.11553  -2.13272
H    -2.32222  -0.35048  -2.30566
H    -0.94165  -1.17070  -3.08000
