26
Generated by autodE on: 2022-06-24. E = -689.460854 Ha
C     2.77665   1.54233  -0.66180
O     2.03016   0.42067  -1.14576
C     0.83479   0.19201  -0.52602
C     0.62898  -0.84177   0.33806
O     1.48672  -1.76676   0.76731
C     2.86095  -1.79565   0.36786
C    -0.73965  -1.06325   0.92662
O    -0.90909  -2.00784   1.68535
C    -1.84336  -0.12970   0.58478
C    -3.18069  -0.37334   1.21313
C    -1.62553   0.89817  -0.27283
C    -2.70809   1.85945  -0.64979
C    -0.27833   1.09531  -0.88807
O    -0.08481   1.99810  -1.70051
H     3.70869   1.57210  -1.24164
H     2.22570   2.48335  -0.80762
H     3.01547   1.41778   0.40751
H     3.29228  -2.66328   0.88303
H     3.38416  -0.88275   0.68607
H     2.95375  -1.92373  -0.71837
H    -3.50322   0.50574   1.79499
H    -3.15556  -1.24541   1.87699
H    -3.94998  -0.53884   0.44081
H    -2.33727   2.62174  -1.34477
H    -3.11371   2.35908   0.24547
H    -3.55219   1.32961  -1.12194
