24
Generated by autodE on: 2022-07-27. E = -681.316606 Ha
C     1.21581  -1.70496  -0.40098
N    -0.07437  -1.07263  -0.05420
C    -1.19192  -1.88679  -0.13640
C    -2.48622  -1.35457  -0.30008
N    -3.56688  -0.94556  -0.47408
C    -1.05566  -3.29129  -0.15683
N    -0.99381  -4.45754  -0.18467
C    -0.11799   0.20962   0.33144
C    -1.23981   0.65763   1.08490
N    -2.09691   1.06724   1.75953
C     0.93038   1.19769   0.03962
C     1.58148   1.23059  -1.21029
C     2.54940   2.19930  -1.46807
C     2.87514   3.14938  -0.49407
C     2.21882   3.13518   0.74145
C     1.24777   2.17239   1.00719
H     1.27145  -1.86875  -1.48429
H     2.03824  -1.07527  -0.05639
H     1.26313  -2.67109   0.11627
H     1.31446   0.51516  -1.98857
H     3.04465   2.21917  -2.44107
H     3.63429   3.90677  -0.70126
H     2.46532   3.87762   1.50322
H     0.73962   2.16430   1.97330
