50
Generated by autodE on: 2022-06-24. E = -1370.755296 Ha. Imaginary frequency = -276.5 cm-1
C    -4.19059  -0.74708   1.39182
O    -3.92197   0.19291   0.34200
C    -2.64828   0.27364  -0.12886
C    -1.90659   1.41475   0.01570
O    -2.22504   2.51622   0.68696
C    -3.21730   2.52398   1.72192
C    -0.59922   1.56922  -0.70209
O    -0.08458   2.68197  -0.76219
C     0.05468   0.37662  -1.27505
C     1.06837   0.68647  -2.34299
C     1.38037  -0.08023   0.47464
C     0.44591   0.25598   1.52891
N    -0.28651   0.55271   2.37953
C     2.52439   0.85961   0.38765
C     3.56130   0.72077  -0.56166
C     4.57149   1.67523  -0.65650
C     4.57302   2.79580   0.17853
C     3.54539   2.95798   1.11086
C     2.53430   2.00567   1.21397
N     1.47895  -1.44194   0.22257
C     2.74107  -2.11592  -0.11433
C     0.27835  -2.14645  -0.00496
C    -0.65404  -2.30612   1.09248
N    -1.41385  -2.51622   1.94507
C     0.42216  -3.40804  -0.68468
N     0.48266  -4.41767  -1.25609
C    -0.70373  -0.85135  -1.39921
C    -0.55936  -1.63477  -2.68459
C    -2.11861  -0.87901  -0.87135
O    -2.83082  -1.85988  -1.07438
H    -5.21654  -0.54514   1.72661
H    -3.49297  -0.60041   2.23065
H    -4.11617  -1.78132   1.03062
H    -3.08962   3.48473   2.23642
H    -4.22906   2.45316   1.30496
H    -3.03849   1.70141   2.42871
H     1.76284  -0.14651  -2.50255
H     1.63506   1.59134  -2.10333
H     0.54438   0.86351  -3.29792
H     3.58178  -0.11554  -1.25214
H     5.36081   1.54229  -1.39915
H     5.36772   3.54075   0.09865
H     3.52732   3.83142   1.76580
H     1.74386   2.15896   1.94763
H     2.92724  -2.13849  -1.19706
H     3.56485  -1.61062   0.39718
H     2.69016  -3.14315   0.26514
H    -1.15030  -2.55604  -2.64903
H    -0.94224  -1.01779  -3.51452
H     0.48477  -1.88196  -2.90799
