30
Generated by autodE on: 2022-05-28. E = -1020.667547 Ha
C    -2.04715   3.61942  -0.72177
N    -1.78053   2.21310  -0.49983
C    -0.55862   1.73171  -0.26685
O     0.47656   2.41663  -0.19267
C    -0.39234   0.26519  -0.04558
C    -1.16162  -0.84417  -0.09292
C    -2.59506  -1.03828  -0.50545
C    -3.05119  -2.42983  -0.80558
O    -3.33110  -0.07033  -0.60202
N    -0.37199  -1.99280   0.19447
C    -0.68167  -2.86834   1.16517
N    -0.92760  -3.69830   1.94411
O     0.99684  -1.58903   0.25935
C     1.02034  -0.15957   0.34416
C     1.35355   0.27414   1.71712
N     1.57054   0.56354   2.81809
C     2.05214   0.31513  -0.71166
O     1.86866   0.11500  -1.88661
O     3.10812   0.87543  -0.16087
C     4.11297   1.38996  -1.05717
H    -2.80037   3.98312  -0.00645
H    -2.42929   3.78743  -1.74108
H    -1.12177   4.19118  -0.58963
H    -2.55156   1.53912  -0.52151
H    -2.34020  -2.93892  -1.47401
H    -3.10247  -3.01501   0.12792
H    -4.04975  -2.39013  -1.25707
H     3.67547   2.17828  -1.68565
H     4.50629   0.58057  -1.68722
H     4.90138   1.80001  -0.41720
