16
Generated by autodE on: 2022-05-28. E = -438.207106 Ha
C     2.66793   0.03665   1.18558
N     2.55437  -0.60139  -0.11273
C     1.44361  -0.75051  -0.85322
O     1.40967  -1.33448  -1.94201
C     0.21079  -0.17485  -0.31915
C    -0.86841   0.26257   0.03185
C    -2.15589   0.79270   0.46405
C    -3.00312  -0.12795   1.28975
O    -2.48432   1.92677   0.15136
H     2.82468  -0.70578   1.98416
H     3.51569   0.73699   1.18820
H     1.75455   0.60127   1.41013
H     3.38699  -1.03498  -0.50816
H    -3.94489   0.36967   1.55623
H    -3.20444  -1.05274   0.72443
H    -2.45262  -0.41890   2.19962
