14
Generated by autodE on: 2022-07-26. E = -582.336495 Ha
C     2.50675   2.16627  -1.58821
O     1.50762   1.57440  -0.73411
C     1.02298   0.40405  -1.10658
O     1.31890  -0.22959  -2.09019
C     0.00840  -0.07459  -0.10799
C    -0.32382   0.69351   1.03634
N    -0.52830   1.40241   1.93669
O    -0.49792  -1.21811  -0.41753
N    -1.39678  -1.99861   0.17250
C    -1.89664  -1.58334   1.33356
N    -2.45800  -1.42603   2.35064
H     2.08728   2.33787  -2.58923
H     3.37942   1.50179  -1.65601
H     2.77829   3.11479  -1.11340
