14
Generated by autodE on: 2022-05-28. E = -582.336095 Ha
C     3.52327  -0.86381  -0.64908
O     2.10771  -0.60497  -0.75284
C     1.51577  -0.13205   0.32302
O     2.03136   0.12572   1.38838
C     0.04507   0.06930   0.12219
C    -0.71106   0.58789   1.20589
N    -1.23707   1.01995   2.14943
O    -0.43012  -0.27257  -1.02610
N    -1.66035  -0.27217  -1.53742
C    -2.64648   0.15001  -0.74979
N    -3.65395   0.47374  -0.24492
H     4.05438   0.05628  -0.36918
H     3.70319  -1.64431   0.10340
H     3.83491  -1.20467  -1.64187
