30
Generated by autodE on: 2022-05-28. E = -1020.547628 Ha. Imaginary frequency = -301.1 cm-1
C     0.21588   3.96261  -0.68773
N    -0.40416   2.69468  -0.34599
C    -0.25074   1.61623  -1.12445
O     0.34506   1.60430  -2.20275
C    -0.85003   0.37280  -0.59637
C    -1.68250  -0.52747  -0.43912
C    -2.86385  -1.40289  -0.41636
C    -3.09238  -2.21221  -1.65408
O    -3.58067  -1.42008   0.56844
N    -0.47721  -2.28502   0.69434
C    -0.87555  -1.98983   1.93438
N    -1.35066  -1.91662   3.00174
O     0.67598  -1.74133   0.26893
C     1.04533  -0.50550   0.47132
C     0.80338   0.22098   1.67888
N     0.66435   0.87959   2.62638
C     2.17182  -0.08724  -0.44499
O     2.56371  -0.78034  -1.34930
O     2.58900   1.11922  -0.11577
C     3.56442   1.73672  -0.98037
H     1.31431   3.89271  -0.63110
H    -0.13193   4.72565   0.01816
H    -0.05944   4.26402  -1.70846
H    -0.85784   2.58559   0.55692
H    -3.98201  -2.84303  -1.52905
H    -2.20450  -2.83118  -1.85889
H    -3.22141  -1.53403  -2.51366
H     3.12571   1.87529  -1.97770
H     4.46208   1.10684  -1.04092
H     3.79764   2.70251  -0.52082
