48
Generated by autodE on: 2022-10-21. E = -1281.408324 Ha
C     3.26473  -2.47168   3.10388
O     2.19230  -1.88090   2.35209
C     2.53692  -1.01618   1.40451
O     3.68473  -0.69751   1.15889
C     1.35948  -0.46358   0.65250
N     0.21231  -1.01376   0.73488
C    -0.76377  -0.27891  -0.07882
C    -1.42186  -1.23472  -1.07727
O    -2.23152  -0.86969  -1.90711
O    -1.01968  -2.49251  -0.95785
C    -1.57625  -3.43949  -1.88511
C    -1.81270   0.28753   0.89720
C    -1.35409   0.99523   2.02073
C    -2.24827   1.53073   2.94750
C    -3.62585   1.36051   2.77617
C    -4.09223   0.64864   1.67042
C    -3.19469   0.11648   0.73807
C     0.05498   0.88489  -0.83946
O    -0.45988   2.16379  -0.60761
C    -1.61646   2.51997  -1.35616
C     0.34047   0.58559  -2.36356
C     1.16368   1.73819  -2.91466
C     2.39603   1.56609  -2.42301
C     2.30479   0.32859  -1.54870
O     1.31545  -0.45800  -2.23337
C     1.50954   0.73551  -0.24749
C     2.07194   1.95831   0.47145
H     2.78992  -3.14413   3.82707
H     3.83960  -1.69282   3.62520
H     3.93276  -3.03580   2.43728
H    -2.66879  -3.48631  -1.77465
H    -1.32148  -3.15526  -2.91591
H    -1.12471  -4.40542  -1.63255
H    -0.28487   1.13033   2.18147
H    -1.86451   2.08132   3.80953
H    -4.32828   1.77680   3.50198
H    -5.16475   0.50096   1.52373
H    -3.59200  -0.42347  -0.11932
H    -1.35828   2.77650  -2.39754
H    -2.05013   3.40528  -0.87146
H    -2.36450   1.71431  -1.36788
H    -0.51687   0.26293  -2.95619
H     0.77593   2.55105  -3.52777
H     3.27187   2.20600  -2.52418
H     3.21864  -0.24341  -1.36302
H     3.12887   1.79478   0.72365
H     1.52236   2.15943   1.40175
H     1.99610   2.84766  -0.16654
