48
Generated by autodE on: 2022-10-21. E = -1281.307012 Ha. Imaginary frequency = -273.9 cm-1
C     3.87391  -1.37277   3.24211
O     2.62012  -1.00945   2.63210
C     2.39686  -1.47751   1.40854
O     3.14274  -2.19087   0.76716
C     1.16492  -0.92878   0.84827
N    -0.00046  -1.19473   0.74402
C    -1.20353  -0.86958   0.26566
C    -1.57041  -1.47332  -1.01311
O    -2.51427  -1.13229  -1.71840
O    -0.71795  -2.45166  -1.37636
C    -0.86005  -2.97149  -2.70079
C    -2.09028  -0.04677   1.09353
C    -1.55128   0.70923   2.15714
C    -2.36227   1.54397   2.92468
C    -3.73154   1.64351   2.65677
C    -4.28085   0.88512   1.61676
C    -3.47655   0.04726   0.84558
C     0.35888   1.34902  -0.88933
O    -0.45685   2.28937  -0.38468
C    -1.71755   2.47939  -1.03146
C     0.37666   0.86624  -2.35342
C     1.35361   1.81993  -3.08779
C     2.56068   1.51082  -2.60132
C     2.30380   0.38206  -1.57305
O     1.20296  -0.29651  -2.21054
C     1.58538   1.01745  -0.35987
C     2.30708   1.79402   0.69566
H     3.93375  -2.46265   3.36883
H     3.88503  -0.87338   4.21691
H     4.71007  -1.02281   2.62049
H    -0.09002  -3.74521  -2.80449
H    -1.85744  -3.41146  -2.84560
H    -0.69781  -2.18051  -3.44783
H    -0.48551   0.64642   2.38246
H    -1.91859   2.12387   3.73755
H    -4.36567   2.30023   3.25663
H    -5.35082   0.94468   1.40282
H    -3.91735  -0.52791   0.03367
H    -2.33121   3.08520  -0.35309
H    -2.21335   1.51765  -1.21615
H    -1.58294   3.01518  -1.98514
H    -0.57766   0.63994  -2.83874
H     1.06140   2.59436  -3.79607
H     3.52952   1.96275  -2.81184
H     3.13194  -0.30106  -1.35331
H     3.13521   1.22508   1.14402
H     1.62353   2.10061   1.50123
H     2.73879   2.71321   0.25556
