42
Generated by autodE on: 2022-06-19. E = -1069.745731 Ha
C     2.83860   1.59041   2.19398
O     1.98965   1.29991   1.06946
C     1.73767   0.02491   0.81869
O     2.17196  -0.89814   1.47766
C     0.81874  -0.17308  -0.40562
C     1.76071  -0.36991  -1.62489
C     1.13634  -0.60165  -2.96667
O     2.96416  -0.33972  -1.45166
C    -0.10561  -1.38849  -0.17881
C     0.60742  -2.64966   0.25808
O     1.40365  -3.20297  -0.47434
C    -1.27309  -0.83741   0.67942
C    -2.53200  -1.68651   0.47955
C    -0.96903  -0.78529   2.18604
C    -1.39403   0.64866   0.07327
C    -1.54952   1.65419   1.14936
N    -1.59720   2.50025   1.94181
C    -2.65948   0.77645  -0.82927
C    -2.52990   0.41565  -2.27633
O    -3.70079   1.15087  -0.32751
N    -0.15798   0.86188  -0.65700
C     0.21976   2.20736  -1.04453
H     2.91414   2.68237   2.23824
H     2.38908   1.19882   3.11727
H     3.83044   1.14128   2.04489
H     0.89511  -1.67522  -3.04405
H     1.85845  -0.34948  -3.75389
H     0.20427  -0.03763  -3.08903
H    -0.52071  -1.64460  -1.16425
H     0.33290  -3.09449   1.23856
H    -2.35395  -2.68874   0.89851
H    -2.79167  -1.81150  -0.58082
H    -3.39103  -1.24620   1.00446
H    -0.14819  -0.10769   2.44975
H    -1.86262  -0.44693   2.72914
H    -0.71650  -1.78808   2.55681
H    -3.53067   0.33906  -2.71990
H    -1.96210   1.20632  -2.79315
H    -1.97159  -0.51925  -2.41431
H    -0.59889   2.67369  -1.61455
H     1.10078   2.16762  -1.70036
H     0.46090   2.86208  -0.18980
