28
Generated by autodE on: 2022-07-27. E = -799.008370 Ha
C     1.29746   1.53834   2.64872
O     0.96515   1.15919   1.30323
C     1.40309  -0.03016   0.88856
O     2.15149  -0.73911   1.52706
C     0.92610  -0.35731  -0.49117
C     1.92553  -1.05554  -1.35166
C     1.48221  -2.12804  -2.31879
O     3.11466  -0.82479  -1.17862
N    -0.30529  -0.02975  -0.91102
C    -0.52044   0.19026  -2.35724
C    -1.37198   0.13658  -0.06196
C    -1.28537  -0.46921   1.21514
N    -1.24418  -0.99533   2.25567
C    -2.59331   0.89648  -0.38226
C    -3.64282   0.93205   0.70240
O    -2.76769   1.48033  -1.44926
H     0.92868   0.78213   3.35575
H     2.38581   1.64802   2.75595
H     0.79770   2.49812   2.82057
H     2.02734  -3.04335  -2.03854
H     1.79547  -1.86311  -3.34057
H     0.40597  -2.33529  -2.30287
H     0.40744  -0.00809  -2.89505
H    -1.34038  -0.44138  -2.71602
H    -0.78923   1.24236  -2.49385
H    -3.24651   1.41041   1.61199
H    -4.50901   1.49780   0.33773
H    -3.95556  -0.08728   0.97859
