42
Generated by autodE on: 2022-06-19. E = -1069.678255 Ha. Imaginary frequency = -292.4 cm-1
C     2.37406   2.17474   2.12886
O     1.80267   1.68343   0.90338
C     1.46900   0.39888   0.87624
O     1.66242  -0.37867   1.78062
C     0.89184   0.06349  -0.50633
C     2.03492  -0.38623  -1.40060
C     1.79218  -0.98860  -2.75701
O     3.15839  -0.35040  -0.92368
C    -0.12008  -1.77730  -0.16629
C     0.87730  -2.56210   0.59037
O     1.83704  -3.09253   0.04663
C    -1.40573  -1.49707   0.36858
C    -2.58907  -1.74772  -0.51735
C    -1.65901  -1.49092   1.84302
C    -1.24838   1.01537  -0.13871
C    -1.05749   1.37836   1.22016
N    -0.96973   1.67602   2.34513
C    -2.59489   1.22972  -0.68451
C    -3.67209   1.61390   0.30071
O    -2.86090   1.04685  -1.87234
N    -0.13441   0.82827  -0.96668
C    -0.18235   1.27615  -2.37219
H     2.58835   3.23488   1.95498
H     3.29714   1.62643   2.36242
H     1.64987   2.05698   2.94733
H     2.26286  -1.98325  -2.74928
H     0.73769  -1.08973  -3.02895
H     2.30887  -0.37791  -3.51359
H    -0.11625  -2.04143  -1.22668
H     0.68653  -2.71944   1.67030
H    -3.50604  -1.27666  -0.13892
H    -2.76795  -2.83946  -0.53867
H    -2.41129  -1.42619  -1.55249
H    -0.80936  -1.11616   2.42516
H    -2.55043  -0.89522   2.08607
H    -1.87010  -2.52643   2.16936
H    -3.47492   2.61554   0.71494
H    -4.63958   1.61380  -0.21649
H    -3.70591   0.91254   1.14840
H    -0.65810   0.54212  -3.03111
H    -0.75138   2.20910  -2.41658
H     0.83906   1.48600  -2.70541
