40
Generated by autodE on: 2022-05-30. E = -1102.656124 Ha
C    -3.66425   2.99138   1.26477
N    -2.43396   2.43838   0.73364
C    -2.10848   1.14677   0.88193
O    -2.82081   0.30000   1.42834
C    -0.75817   0.76148   0.34229
N     0.27436   1.51905   0.50897
C     1.43238   0.82152   0.00002
C     2.15779   1.62791  -1.12755
C     1.95581   3.10821  -1.13440
O     2.86521   1.03111  -1.90582
C     2.53017   0.59873   1.09292
O     3.49848  -0.10639   0.82787
N     2.30674   1.23136   2.24789
C     3.20059   1.15868   3.38790
C     0.90618  -0.50831  -0.49657
C     1.69827  -1.50598  -1.11233
N     2.32654  -2.34441  -1.62050
C    -0.44544  -0.53954  -0.29071
C    -1.39227  -1.60113  -0.65103
C    -1.05973  -2.95330  -0.45152
C    -1.95054  -3.96047  -0.82503
C    -3.17790  -3.63215  -1.40863
C    -3.51444  -2.28956  -1.61454
C    -2.63279  -1.27909  -1.23366
H    -4.48117   2.26811   1.13788
H    -3.57603   3.22632   2.33871
H    -3.91106   3.91201   0.72144
H    -1.73918   3.06307   0.33580
H     2.12359   3.51778  -0.12707
H     2.63398   3.57019  -1.86293
H     0.90930   3.32855  -1.39966
H     1.45779   1.78687   2.31290
H     2.71293   0.65385   4.23617
H     4.09662   0.59396   3.10564
H     3.49819   2.16893   3.70575
H    -0.11073  -3.21512   0.01915
H    -1.68584  -5.00645  -0.65519
H    -3.87354  -4.42181  -1.70165
H    -4.46978  -2.02818  -2.07499
H    -2.89610  -0.23475  -1.41029
