15
Generated by autodE on: 2022-05-30. E = -400.824236 Ha
N     4.58734  -1.03333  -0.36788
C     3.45032  -0.77744  -0.27592
C     2.11971  -0.47777  -0.16851
C     0.93130  -0.21034  -0.07295
C    -0.45075   0.10152   0.03722
C    -0.86431   1.44411   0.17742
C    -2.22096   1.74145   0.28375
C    -3.17172   0.71478   0.25198
C    -2.76608  -0.61761   0.11337
C    -1.41317  -0.93089   0.00584
H    -0.11602   2.23806   0.20106
H    -2.53973   2.78024   0.39208
H    -4.23416   0.95418   0.33583
H    -3.50956  -1.41710   0.08894
H    -1.08780  -1.96676  -0.10262
