40
Generated by autodE on: 2022-05-30. E = -1102.539915 Ha. Imaginary frequency = -345.5 cm-1
C    -4.36022   1.31765   0.33579
N    -2.93296   1.28786   0.06675
C    -2.05613   0.98986   1.02974
O    -2.31033   0.81771   2.21894
C    -0.65434   0.80234   0.55688
N     0.42776   1.30043   0.71154
C     1.72039   1.21024   0.46353
C     2.26376   1.93746  -0.70130
C     1.29434   2.71976  -1.54236
O     3.46068   1.86667  -0.98259
C     2.50937   0.47619   1.50868
O     1.93121  -0.06396   2.45966
N     3.83511   0.42807   1.30946
C     4.69740  -0.36465   2.16067
C     1.00257  -0.89249  -0.92481
C     2.28223  -1.12972  -1.33286
N     3.38520  -1.32139  -1.67989
C    -0.22456  -0.92350  -0.68573
C    -1.54966  -1.48129  -0.84698
C    -2.26100  -1.97580   0.26223
C    -3.55528  -2.46646   0.09601
C    -4.15731  -2.45383  -1.16721
C    -3.45389  -1.96024  -2.27057
C    -2.15349  -1.47725  -2.11828
H    -4.88088   1.66171  -0.56519
H    -4.58207   2.00472   1.16433
H    -4.72732   0.31358   0.60444
H    -2.61496   1.25486  -0.89922
H     0.81746   3.51046  -0.94191
H     1.82893   3.16599  -2.38977
H     0.49151   2.06234  -1.91245
H     4.18330   0.84586   0.44509
H     5.74176  -0.17351   1.88482
H     4.55408  -0.09891   3.21881
H     4.49432  -1.44347   2.05194
H    -1.79872  -1.95771   1.25053
H    -4.10107  -2.85139   0.96008
H    -5.17643  -2.82673  -1.29057
H    -3.92063  -1.94881  -3.25800
H    -1.60325  -1.08280  -2.97417
