19
Generated by autodE on: 2022-05-26. E = -473.721931 Ha
C    -1.60878   1.15736  -1.57582
N    -1.57023   0.38325  -0.52749
C    -2.85939  -0.04708   0.05844
C    -0.42213  -0.09372   0.11974
C    -0.59676  -0.92752   1.23575
N    -0.67151  -1.62820   2.17320
C     0.92824   0.24400  -0.32677
O     1.16525   0.96928  -1.31554
N     1.95482  -0.27757   0.39722
C     3.33231  -0.00133   0.05022
H    -0.67352   1.48494  -2.02073
H    -2.58583   1.44349  -1.96173
H    -2.92137   0.30559   1.09540
H    -2.91712  -1.14241   0.04044
H    -3.67616   0.37943  -0.53079
H     1.76207  -0.85633   1.20626
H     3.57310  -0.34621  -0.96882
H     3.98562  -0.52631   0.75836
H     3.55907   1.07676   0.09890
