37
Generated by autodE on: 2022-05-26. E = -938.141303 Ha. Imaginary frequency = -322.5 cm-1
C     4.20725  -0.66476  -0.53464
N     3.06944   0.16151  -0.88354
C     2.20225   0.59047   0.06207
O     2.40945   0.37097   1.26691
C     0.98421   1.26680  -0.44456
C     0.77312   1.34554  -1.84047
N     0.63653   1.40925  -2.99951
N     0.10342   1.95194   0.36644
C     0.54180   2.56250   1.63409
C    -1.20078   1.96289   0.05380
C    -1.86163  -0.08553   0.16612
F    -2.87592   0.09701  -0.71714
C    -2.20601  -0.42832   1.60378
C    -2.70345  -1.90891   1.56557
C    -1.40843  -2.71198   1.24355
C    -0.32992  -1.59234   1.08721
C    -0.79257  -0.61040   2.18163
C    -0.73865  -0.84927  -0.18256
C    -0.48201  -1.33271  -1.47825
N    -0.26325  -1.74912  -2.54760
H     3.89321  -1.63284  -0.10974
H     4.84796  -0.16290   0.20619
H     4.79608  -0.85310  -1.44053
H     2.86182   0.30844  -1.86535
H    -0.33595   2.73010   2.26664
H     1.01975   3.52648   1.40549
H     1.26210   1.91391   2.13667
H    -1.46914   1.87545  -0.99878
H    -1.85653   2.55922   0.69004
H    -2.87819   0.27988   2.10211
H    -3.11535  -2.18340   2.54726
H    -3.49462  -2.04843   0.81561
H    -1.12929  -3.37515   2.07604
H    -1.49499  -3.32527   0.33556
H     0.71074  -1.93274   1.12286
H    -0.80814  -1.08192   3.17444
H    -0.20134   0.30508   2.23436
