34
Generated by autodE on: 2022-05-29. E = -993.999149 Ha
C     4.15934  -1.00423   1.89041
N     3.05397  -0.82027   0.97363
C     2.44879   0.34861   0.75836
O     2.72954   1.42155   1.29259
C     1.30144   0.28337  -0.30530
C     1.85486   0.91426  -1.50855
N     2.29992   1.41173  -2.45717
N     0.90930  -1.10020  -0.59169
C    -0.13925  -1.42026   0.37675
C    -1.04134  -2.52586  -0.14468
C    -1.88613  -3.23577   0.86870
O    -1.07124  -2.78583  -1.33593
C    -0.91908  -0.10878   0.68648
C    -2.13293   0.17447  -0.25754
O    -1.48210   0.63718  -1.44698
C    -0.81383   1.75886  -0.82872
C    -1.95052   2.46896  -0.10341
C    -2.75825   1.46547   0.24025
F    -3.85748   1.47547   0.98797
C     0.04862   1.03625   0.25051
H     5.08414  -1.25813   1.34842
H     4.32082  -0.07285   2.44669
H     3.93972  -1.81406   2.60191
H     2.68635  -1.60432   0.43507
H     0.49466  -1.15864  -1.52407
H     0.31713  -1.76381   1.31756
H    -2.64168  -3.85857   0.37298
H    -1.22900  -3.87140   1.48632
H    -2.36424  -2.51553   1.55096
H    -1.21479  -0.06558   1.74052
H    -2.81740  -0.65728  -0.45523
H    -0.26098   2.34498  -1.56977
H    -1.99906   3.52561   0.15189
H     0.34659   1.71894   1.05123
