21
Generated by autodE on: 2022-05-29. E = -587.132163 Ha
C    -3.89301   1.51109  -0.49768
N    -2.91504   0.50877  -0.12100
C    -1.59657   0.72908  -0.25428
O    -1.12485   1.78464  -0.71384
C    -0.67490  -0.34429   0.16653
C    -1.07063  -1.58674   0.68901
N    -1.41288  -2.61683   1.12232
N     0.63084  -0.04031   0.00204
C     1.72646  -0.72710   0.25140
C     3.05640  -0.19348  -0.01475
C     3.19243   1.19333  -0.59316
O     4.03792  -0.89286   0.24261
H    -3.81045   2.41238   0.13113
H    -3.76152   1.81544  -1.54733
H    -4.89675   1.08712  -0.37551
H    -3.23735  -0.36479   0.28377
H     0.71101   0.91279  -0.39619
H     1.63356  -1.73137   0.66886
H     4.25617   1.41713  -0.74148
H     2.66573   1.27278  -1.55843
H     2.75532   1.94385   0.08613
