13
Generated by autodE on: 2022-05-29. E = -406.788329 Ha
F     1.21187  -1.82646   0.75533
C     0.74322  -0.67748   0.27742
C     1.13277   0.57471   0.50807
C     0.07852   1.39852  -0.27008
C    -1.28210   1.24577   0.45562
C    -1.64946  -0.02053   0.24251
C    -0.50833  -0.61778  -0.61810
O    -0.15302   0.53122  -1.40756
H     1.91877   0.96547   1.15040
H     0.37267   2.40777  -0.57786
H    -1.76547   2.02105   1.04939
H    -2.51306  -0.57330   0.61023
H    -0.72638  -1.50562  -1.22182
