23
Generated by autodE on: 2022-06-16. E = -534.917883 Ha
N     3.57301   2.20428   1.52350
C     2.89166   1.40297   1.03003
C     2.06630   0.41642   0.37977
N     1.16336  -0.20948   1.03618
C     0.45523  -1.11226   0.10577
C    -0.98359  -0.66161  -0.06573
C    -1.29159   0.66010  -0.42605
C    -2.61788   1.05230  -0.62083
C    -3.65663   0.12856  -0.45926
C    -3.35917  -1.18887  -0.09996
C    -2.03060  -1.57852   0.09747
C     1.28521  -1.12470  -1.21023
C     2.21182   0.09799  -1.08764
H     0.43467  -2.10955   0.56606
H    -0.49151   1.39306  -0.55477
H    -2.84218   2.08486  -0.89940
H    -4.69393   0.43645  -0.61109
H    -4.16347  -1.91698   0.03075
H    -1.80063  -2.60892   0.38081
H     1.88010  -2.04731  -1.26136
H     0.64567  -1.08329  -2.10099
H     3.25926  -0.10400  -1.35605
H     1.88245   0.96656  -1.68197
