17
Generated by autodE on: 2022-06-16. E = -456.186956 Ha
N     4.23317   1.74323  -0.20926
C     3.38887   0.98583  -0.49561
C     2.44045   0.10823  -1.04777
N     1.59120  -0.54387  -0.43640
C     0.61651  -1.20996   0.04442
C    -0.73069  -0.66455   0.19177
C    -1.05225   0.65079  -0.19717
C    -2.35441   1.12354  -0.04789
C    -3.34882   0.29775   0.49227
C    -3.03463  -1.00845   0.88234
C    -1.73398  -1.48991   0.73383
H     0.81765  -2.23952   0.36288
H    -0.27884   1.29960  -0.61465
H    -2.59734   2.14429  -0.35171
H    -4.36749   0.67418   0.60992
H    -3.80718  -1.65548   1.30396
H    -1.48441  -2.51024   1.03429
