29
Generated by autodE on: 2022-07-27. E = -870.505119 Ha
C    -1.44999   2.10482   2.68804
N    -0.88194   0.85826   2.20478
C    -1.00440   0.49909   0.91486
O    -1.70168   1.09938   0.09562
C    -0.33685  -0.78085   0.50592
N     0.31974  -0.88697  -0.62861
C     0.83120   0.01393  -1.51083
C     1.23704  -0.48272  -2.76939
N     1.56678  -0.89524  -3.81082
C     1.11304   1.39247  -1.13649
O     1.06285   1.83091   0.00280
O     1.49326   2.12527  -2.19488
C     1.89470   3.47550  -1.92810
C    -0.61942  -2.12412   1.10394
O    -0.17278  -3.13459   0.53812
N    -1.36163  -2.17239   2.21767
C    -1.69236  -3.43543   2.85009
H    -2.51737   2.16069   2.43285
H    -0.94028   2.97304   2.23855
H    -1.33918   2.14724   3.77823
H    -0.15972   0.40537   2.75927
H     0.46537  -1.88900  -0.85681
H     2.76221   3.49479  -1.25225
H     1.06693   4.04128  -1.47664
H     2.16272   3.90680  -2.89945
H    -1.69419  -1.30838   2.63464
H    -0.78065  -3.99377   3.11291
H    -2.26356  -3.23219   3.76325
H    -2.29809  -4.06688   2.18126
