37
Generated by autodE on: 2022-06-11. E = -1431.575038 Ha
C     3.23572   2.47073  -1.48009
N     2.20037   1.87365  -0.65893
C     2.41458   0.80176   0.10181
O     3.49837   0.23932   0.25884
C     1.16073   0.26254   0.85980
C     1.53661   0.31007   2.28363
N     1.82436   0.44004   3.39922
N    -0.00632   1.11996   0.67858
C    -0.99260   0.44954   0.19302
C    -2.29543   1.07057  -0.09616
C    -3.39226   0.28453  -0.49450
C    -4.62616   0.87968  -0.76338
C    -4.77850   2.26348  -0.64191
C    -3.69184   3.05424  -0.24681
C    -2.46061   2.46387   0.02561
C    -0.71679  -1.00281  -0.08713
C    -0.57517  -1.32049  -1.62140
C    -0.36954  -2.82041  -1.73283
C     0.87828  -3.04058  -1.30369
C     1.43458  -1.66701  -0.95596
O     0.74687  -0.81076  -1.87467
C     0.75423  -1.19660   0.37605
Cl    0.95724  -2.43009   1.67184
H     4.20585   2.38840  -0.97252
H     3.31039   1.96859  -2.45878
H     3.00226   3.53045  -1.64386
H     1.24751   2.22445  -0.70950
H    -3.29028  -0.79723  -0.59038
H    -5.47125   0.25905  -1.06878
H    -5.74382   2.72846  -0.85520
H    -3.80833   4.13614  -0.15213
H    -1.61148   3.07503   0.33293
H    -1.43276  -1.66743   0.40976
H    -1.31753  -0.84535  -2.26999
H    -1.13988  -3.53937  -2.01067
H     1.39755  -3.98464  -1.14716
H     2.51717  -1.52936  -0.99082
