13
Generated by autodE on: 2022-06-11. E = -767.141591 Ha
Cl    2.07910   0.64501   0.77130
C     0.67445   0.02067  -0.00570
C     0.38983  -1.21907  -0.41129
C    -1.07984  -1.11028  -0.88284
C    -1.95623  -0.88054   0.37323
C    -1.65769   0.35555   0.78201
C    -0.60658   0.86025  -0.23550
O    -1.07894   0.22610  -1.43450
H     0.98245  -2.12964  -0.35193
H    -1.42339  -1.85539  -1.60841
H    -2.61320  -1.62478   0.82225
H    -1.99909   0.90768   1.65674
H    -0.47285   1.94121  -0.34866
