31
Generated by autodE on: 2022-10-06. E = -1137.387477 Ha
C    -4.22124  -0.55311  -1.61222
N    -2.83063  -0.24920  -1.34701
C    -2.38759   0.28059  -0.19738
O    -3.10132   0.59307   0.76052
C    -0.89472   0.52982  -0.14276
N    -0.04586  -0.20251  -1.10244
C     1.17886   0.47423  -0.69305
C     2.45342   0.24458  -1.50315
C     2.37075  -0.59667  -2.73891
O     3.44999   0.86553  -1.17506
O     0.80292   1.88091  -0.87076
C    -0.49980   1.95481  -0.51339
O    -1.13048   2.98070  -0.48994
C     1.29012   0.23888   0.82945
C     2.01560  -1.09076   1.12378
O     2.43643  -1.73554   0.12193
O     2.14763  -1.41368   2.32555
C    -0.21544   0.28125   1.25437
C    -0.74216  -1.04816   1.84825
O    -0.81580  -2.02038   1.04323
O    -1.06255  -1.05658   3.05677
H    -4.81484  -0.29444  -0.72738
H    -4.35382  -1.62430  -1.82943
H    -4.59492   0.02491  -2.47191
H    -2.13249  -0.45470  -2.05585
H    -0.00689  -1.17449  -0.77141
H     3.38026  -0.79682  -3.12142
H     1.79965  -0.03511  -3.49838
H     1.83476  -1.53537  -2.55000
H     1.85778   1.05170   1.30186
H    -0.42509   1.09745   1.95430
