21
Generated by autodE on: 2022-10-06. E = -682.308165 Ha
C     4.36109   0.50844   0.02506
N     3.00717  -0.00022   0.07131
C     1.91420   0.78018  -0.06492
O     1.93853   2.00860  -0.24157
C     0.63707   0.07052   0.00941
N    -0.55614   0.72586  -0.11453
C    -1.56691  -0.12003  -0.01840
C    -3.00989   0.15760  -0.09982
C    -3.41666   1.58731  -0.30942
O    -3.79432  -0.77383   0.00875
O    -1.09223  -1.35421   0.17151
C     0.33420  -1.30384   0.19967
O     0.99488  -2.31413   0.36216
H     4.32756   1.59650  -0.10416
H     4.92189   0.06974  -0.81573
H     4.90101   0.27851   0.95715
H     2.86005  -0.99790   0.20919
H    -0.63106   1.73530  -0.26577
H    -3.07452   2.20574   0.53690
H    -2.95318   1.99218  -1.22375
H    -4.50906   1.64395  -0.38951
