10
Generated by autodE on: 2022-10-06. E = -455.046610 Ha
O     2.55629   0.30380   1.18308
C     1.42599   0.02396   0.69068
O     0.93337  -1.13591   0.60049
C     0.61892   1.19395   0.17799
C    -0.58915   1.12322  -0.40600
C    -1.41907  -0.11717  -0.67893
O    -2.25021  -0.44159   0.20830
O    -1.26896  -0.66239  -1.80272
H     1.09510   2.17270   0.30831
H    -1.06395   2.05870  -0.73349
