31
Generated by autodE on: 2022-10-06. E = -1137.334506 Ha. Imaginary frequency = -446.7 cm-1
C    -4.12542  -1.03352  -0.78368
N    -2.72691  -0.66746  -0.91121
C    -2.36445   0.62306  -0.71398
O    -3.17726   1.55307  -0.61175
C    -0.91533   0.88568  -0.62735
N     0.09768   0.11823  -1.13151
C     1.26996   0.60556  -0.62580
C     2.62864   0.31318  -1.21770
C     2.69312  -0.30156  -2.58549
O     3.60909   0.74730  -0.63555
O     1.05398   1.93040  -0.32175
C    -0.32755   2.12387  -0.18393
O    -0.77117   3.17935   0.22568
C     1.31243  -0.18539   1.20516
C     1.85891  -1.59945   0.92861
O     2.12638  -1.91705  -0.26406
O     2.07013  -2.30174   1.94315
C     0.02447   0.03481   1.69610
C    -1.06934  -0.97574   1.58307
O    -0.88702  -1.93568   0.75970
O    -2.11714  -0.79543   2.25611
H    -4.75134  -0.39355  -1.42005
H    -4.47470  -0.93291   0.25865
H    -4.25366  -2.07767  -1.09763
H    -2.05711  -1.36361  -0.54917
H     0.01236  -0.89000  -1.27176
H     3.67102  -0.78210  -2.72255
H     2.59993   0.51863  -3.31932
H     1.88566  -1.01866  -2.77014
H     2.08668   0.49682   1.57643
H    -0.19475   0.92532   2.29011
