45
Generated by autodE on: 2022-06-03. E = -1924.539562 Ha
C     4.30189   1.27946   0.44020
O     3.33613   0.37470  -0.12015
C     2.21621   0.18368   0.57526
O     1.99035   0.66948   1.65222
C     1.28098  -0.71502  -0.29138
C     2.17120  -1.87342  -0.80782
C     2.38025  -2.00530  -2.27969
O     2.66373  -2.60726   0.02450
O     0.84677   0.08923  -1.38246
C    -0.34640   0.77919  -1.07570
C    -1.06722   0.95583  -2.35242
N    -1.58274   1.13988  -3.37315
C     0.02833   2.23291  -0.62771
O     1.15932   2.55655  -0.37181
O    -1.02429   3.02291  -0.64741
C    -0.83655   4.38185  -0.20479
C    -1.14093  -0.14750  -0.03200
C    -1.75800   0.66499   1.11736
F    -2.79336   1.39416   0.66769
F    -0.87772   1.51521   1.68046
F    -2.22809  -0.09813   2.11017
C    -2.20280  -1.00136  -0.80484
C    -2.94444  -2.00018   0.10642
C    -1.84411  -3.03850   0.45715
C    -0.61158  -2.52620  -0.32160
C    -1.29155  -1.97053  -1.58377
C    -0.03817  -1.23995   0.36007
Cl    0.24755  -1.57750   2.11108
H     5.13978   1.29849  -0.26546
H     3.86007   2.28070   0.54011
H     4.63574   0.91949   1.42341
H     1.41993  -2.20277  -2.78085
H     2.76360  -1.05653  -2.68484
H     3.08399  -2.82373  -2.47642
H    -0.49831   4.38432   0.84061
H    -1.81697   4.86112  -0.29425
H    -0.09749   4.88588  -0.84200
H    -2.87731  -0.36932  -1.39162
H    -3.42030  -1.54829   0.98136
H    -3.74206  -2.45854  -0.49482
H    -1.65976  -3.12684   1.53283
H    -2.10187  -4.03743   0.07937
H     0.15711  -3.29252  -0.46477
H    -0.61501  -1.51097  -2.31030
H    -1.87640  -2.74172  -2.10306
