45
Generated by autodE on: 2022-06-03. E = -1924.456254 Ha. Imaginary frequency = -266.5 cm-1
C     4.33530   1.57625   0.70692
O     3.47237   0.75936  -0.10422
C     2.32894   0.36676   0.45856
O     2.00811   0.58542   1.59596
C     1.58549  -0.46794  -0.58624
C     2.26776  -1.74129  -0.93272
C     2.13919  -2.29710  -2.31662
O     2.93062  -2.26809  -0.04725
O     0.85574   0.07678  -1.53473
C    -0.07499   1.02762  -1.46664
C    -0.99009   1.01761  -2.55301
N    -1.77259   1.00361  -3.41553
C     0.16359   2.30611  -0.76252
O     1.21047   2.59853  -0.22167
O    -0.90759   3.08774  -0.83033
C    -0.84528   4.34120  -0.12995
C    -1.33315  -0.45320   0.26118
C    -1.78511   0.59999   1.22990
F    -2.69505   1.41851   0.67389
F    -0.78354   1.36621   1.69467
F    -2.37862   0.05084   2.31626
C    -2.32983  -1.08972  -0.70110
C    -3.13047  -2.13407   0.14889
C    -2.06506  -3.22067   0.45951
C    -0.78672  -2.67775  -0.25891
C    -1.42213  -2.03883  -1.50393
C    -0.39088  -1.44431   0.54692
Cl    0.30940  -1.73184   2.11682
H     5.21007   1.79787   0.08563
H     3.81607   2.50392   0.98617
H     4.63485   1.03037   1.61265
H     1.08779  -2.45037  -2.59550
H     2.56171  -1.57569  -3.03529
H     2.68605  -3.24640  -2.37280
H    -0.69801   4.16037   0.94423
H    -1.80970   4.82940  -0.30714
H    -0.02419   4.95796  -0.52115
H    -2.95246  -0.38604  -1.26236
H    -3.57295  -1.69093   1.04954
H    -3.94778  -2.53285  -0.46889
H    -1.89676  -3.36912   1.53416
H    -2.33479  -4.19057   0.01881
H     0.01085  -3.41609  -0.39789
H    -0.71474  -1.53765  -2.16859
H    -2.00323  -2.76403  -2.08995
