51
Generated by autodE on: 2022-06-12. E = -3874.219678 Ha
C    -3.29796  -1.37236  -2.65954
N    -2.25255  -0.59142  -2.02758
C    -1.63127  -1.01803  -0.92332
O    -1.91168  -2.07952  -0.36160
C    -0.60866  -0.02599  -0.30155
C    -1.28749   0.55547   0.93001
C    -1.66081   1.90426   0.97303
C    -2.27680   2.42819   2.11389
C    -2.52693   1.61112   3.21815
C    -2.16805   0.25947   3.17137
C    -1.55779  -0.26749   2.03337
O    -0.35700   1.06620  -1.20302
N     0.63113   0.60469  -2.07949
C     0.71431   1.15684  -3.33711
C    -0.34320   2.16162  -3.69826
O     1.62788   0.82164  -4.08104
C     1.59824  -0.17939  -1.40027
Br    3.31467   0.83651  -1.18568
C     1.88512  -1.54700  -2.10317
C     2.97390  -2.25522  -1.31382
C     2.38024  -2.64879  -0.18343
C     0.93007  -2.19306  -0.29359
O     0.71011  -2.25966  -1.71474
C     0.85596  -0.63772  -0.06524
C     1.41247  -0.15884   1.25959
C     1.59377   1.21295   1.50463
C     1.99070   1.67183   2.75947
C     2.21156   0.76659   3.80328
C     2.01970  -0.59710   3.57802
C     1.61712  -1.05332   2.31840
H    -2.92709  -2.37218  -2.93186
H    -3.62494  -0.85455  -3.56918
H    -4.16337  -1.50045  -1.98959
H    -2.03140   0.33032  -2.38317
H    -1.45990   2.55407   0.12237
H    -2.55700   3.48384   2.13645
H    -3.00137   2.02328   4.11174
H    -2.36061  -0.38977   4.02848
H    -1.28022  -1.31999   2.00472
H    -0.42723   2.94180  -2.92780
H    -0.07324   2.60711  -4.66317
H    -1.32698   1.67625  -3.79506
H     1.98330  -1.46710  -3.18823
H     4.01699  -2.34281  -1.61150
H     2.82124  -3.14833   0.67677
H     0.17580  -2.76343   0.24769
H     1.40129   1.93527   0.71249
H     2.12174   2.74375   2.92462
H     2.52189   1.12520   4.78749
H     2.17055  -1.31575   4.38677
H     1.43382  -2.11920   2.18920
