23
Generated by autodE on: 2022-06-12. E = -3112.268688 Ha
Br    0.68948  -0.53942   2.09647
C     0.97330   0.24071   0.41464
C     0.13089   0.46977  -0.61237
C    -1.29629   0.25569  -0.81709
C    -1.79226   0.08366  -2.12691
C    -3.15016  -0.14550  -2.35272
C    -4.04479  -0.19342  -1.27931
C    -3.56882  -0.00948   0.02409
C    -2.21182   0.21071   0.25572
C     1.10762   0.91148  -1.74860
C     1.91578  -0.33522  -2.16864
C     2.72827  -0.57903  -1.13626
C     2.39837   0.53025  -0.10953
O     2.09788   1.62469  -0.98636
H    -1.10737   0.11489  -2.97642
H    -3.51133  -0.28491  -3.37435
H    -5.10853  -0.36769  -1.45679
H    -4.26198  -0.03403   0.86832
H    -1.85969   0.36522   1.27547
H     0.67509   1.53057  -2.54094
H     1.76976  -0.89422  -3.09214
H     3.43439  -1.39267  -0.97513
H     3.15836   0.78136   0.63794
