51
Generated by autodE on: 2022-06-12. E = -3874.131162 Ha. Imaginary frequency = -229.0 cm-1
C    -2.63789  -2.57811  -2.57322
N    -2.14432  -1.29903  -2.10396
C    -1.80265  -1.14122  -0.81336
O    -2.04679  -1.98286   0.05761
C    -1.20758   0.20457  -0.45156
C    -1.51912   0.86292   0.81224
C    -1.48321   2.27615   0.88143
C    -1.70601   2.93172   2.08640
C    -1.94145   2.19691   3.25511
C    -1.97211   0.80073   3.20142
C    -1.77188   0.13378   1.99479
O    -0.77730   1.04500  -1.37092
N    -0.15771   0.51673  -2.48388
C     0.22524   1.53428  -3.33634
C    -0.11139   2.96564  -3.00945
O     0.84715   1.20752  -4.34727
C     1.62547  -0.34375  -1.37879
Br    2.89888   1.04230  -1.57861
C     1.78238  -1.59297  -2.26582
C     2.93162  -2.41258  -1.63815
C     2.42959  -2.87443  -0.48746
C     0.98662  -2.32947  -0.43305
O     0.64659  -2.33512  -1.82631
C     1.11537  -0.79972  -0.15802
C     1.31424  -0.28481   1.19205
C     1.46952   1.09133   1.46675
C     1.63142   1.54577   2.77313
C     1.64365   0.64363   3.84297
C     1.48151  -0.72103   3.59021
C     1.30784  -1.17978   2.28378
H    -1.84137  -3.34180  -2.55763
H    -3.00108  -2.46534  -3.60236
H    -3.46335  -2.92775  -1.93874
H    -1.62419  -0.71522  -2.76194
H    -1.28438   2.85489  -0.01984
H    -1.68491   4.02304   2.11931
H    -2.09983   2.71329   4.20455
H    -2.14581   0.22162   4.11067
H    -1.78851  -0.95083   1.95775
H     0.34052   3.25290  -2.04746
H     0.27524   3.61067  -3.80781
H    -1.19894   3.10058  -2.91147
H     1.78496  -1.41248  -3.34483
H     3.93387  -2.51108  -2.05278
H     2.91060  -3.45643   0.29763
H     0.24923  -2.87200   0.16254
H     1.43295   1.81390   0.65368
H     1.73505   2.61712   2.95915
H     1.76903   1.00435   4.86632
H     1.47804  -1.43593   4.41627
H     1.16521  -2.24777   2.11525
