53
Generated by autodE on: 2022-06-11. E = -3858.392723 Ha
C    -3.17341   2.90918   0.99175
O    -2.29376   2.11410   0.18279
C    -2.48218   0.79980   0.19787
O    -3.42388   0.27506   0.75532
C    -1.46161   0.03910  -0.69590
C    -2.18153  -0.02653  -2.05648
N    -0.16067   0.67745  -0.81137
C     0.01345   1.90550  -1.56966
C     0.71312   0.29808   0.30121
C     0.22102   1.22004   1.45188
C     0.73492   2.63729   1.49882
O    -0.68837   0.87524   2.18948
C     2.19842   0.45447   0.01417
C     2.71042   0.33501  -1.28647
C     4.08581   0.40037  -1.51865
C     4.97304   0.57644  -0.45232
C     4.47319   0.68171   0.84829
C     3.09619   0.62118   1.07787
C     0.33475  -1.21330   0.50707
Br    0.80784  -1.76465   2.35432
C     1.14515  -2.20918  -0.40981
C     0.71314  -3.62756  -0.05566
C    -0.50327  -3.76322  -0.59272
C    -0.79231  -2.42518  -1.25642
O     0.51028  -2.00997  -1.67049
C    -1.12302  -1.39076  -0.09389
C    -2.31196  -2.00307   0.68224
C    -2.42119  -1.96716   2.17704
O    -3.14360  -2.59960   0.01303
H    -4.21834   2.76395   0.68409
H    -2.86935   3.94984   0.83331
H    -3.05487   2.63343   2.04918
H    -2.53477   0.97138  -2.35021
H    -1.50558  -0.39748  -2.83656
H    -3.05349  -0.68893  -1.97785
H    -0.54916   2.76341  -1.17103
H     1.07442   2.17620  -1.58626
H    -0.29565   1.74668  -2.61347
H     1.41112   2.89720   0.67828
H     1.27423   2.77259   2.45026
H    -0.12934   3.31800   1.50990
H     2.02906   0.16588  -2.11924
H     4.46555   0.30693  -2.53873
H     6.04905   0.62807  -0.63429
H     5.15586   0.81252   1.69103
H     2.72528   0.69878   2.10076
H     2.21816  -2.01238  -0.45140
H     1.27795  -4.32551   0.55895
H    -1.19888  -4.59782  -0.52553
H    -1.49955  -2.42870  -2.08546
H    -3.48197  -2.05258   2.44778
H    -1.96649  -1.07240   2.61133
H    -1.89312  -2.84880   2.57507
