18
Generated by autodE on: 2022-06-11. E = -3033.822773 Ha
C     2.59577  -0.92921  -2.02813
C     1.95278  -0.25482  -0.84469
O     2.53308   0.60026  -0.18431
C     0.57987  -0.67603  -0.52597
C    -0.33472  -0.12310   0.29702
Br   -0.24291   1.37912   1.38997
C    -1.64641  -0.91258   0.07977
C    -2.14194  -0.55034  -1.33943
C    -1.25413  -1.11708  -2.16080
C    -0.22875  -1.80293  -1.23041
O    -1.08944  -2.21305  -0.14930
H     3.57501  -0.47769  -2.23289
H     1.94769  -0.84812  -2.91631
H     2.72004  -2.00527  -1.82122
H    -2.37142  -0.89637   0.89992
H    -3.00186   0.08101  -1.55852
H    -1.18660  -1.08388  -3.24745
H     0.34828  -2.63893  -1.63649
