35
Generated by autodE on: 2022-07-27. E = -824.515860 Ha
C    -1.58807  -1.85242   2.13611
O    -1.36130  -1.36184   0.81059
C    -2.27532  -0.51321   0.31224
O    -3.36788  -0.33653   0.82998
C    -1.88956   0.09814  -0.97904
C    -2.96004   0.36036  -1.98340
N    -0.60642   0.36141  -1.24220
C    -0.16021   0.48798  -2.63908
C     0.24615   0.66774  -0.20039
C    -0.24840   1.46827   0.90278
C    -1.41515   2.42582   0.70488
O     0.33477   1.48499   2.00277
C     1.57644   0.05585  -0.18303
C     1.77255  -1.21690  -0.76139
C     3.03137  -1.81880  -0.76468
C     4.12243  -1.17150  -0.17671
C     3.94097   0.08648   0.41176
C     2.68723   0.69517   0.40903
H    -2.52274  -2.42913   2.18859
H    -1.63016  -1.01531   2.84858
H    -0.73293  -2.49802   2.36765
H    -2.90955  -0.36238  -2.81646
H    -3.94278   0.26505  -1.50726
H    -2.86921   1.36867  -2.41768
H     0.92311   0.63639  -2.65484
H    -0.64466   1.36861  -3.08550
H    -0.43323  -0.40684  -3.21281
H    -1.08690   3.39898   1.10256
H    -2.28278   2.10611   1.30230
H    -1.73390   2.55228  -0.33746
H     0.92089  -1.74525  -1.19414
H     3.15727  -2.80530  -1.21754
H     5.10734  -1.64419  -0.17279
H     4.78852   0.60116   0.87106
H     2.56242   1.67900   0.86072
