35
Generated by autodE on: 2022-06-11. E = -824.513666 Ha
C     5.20052   0.68492  -0.23890
O     3.96126   0.05045   0.09685
C     2.84908   0.60192  -0.41406
O     2.88318   1.58992  -1.12948
C     1.63897  -0.16145  -0.02522
C     1.80061  -1.49911   0.59328
N     0.42213   0.35437  -0.23904
C     0.23247   1.80076  -0.48947
C    -0.71561  -0.44884  -0.26667
C    -0.67183  -1.68671  -1.00337
C    -1.87109  -2.61630  -0.96501
O     0.31016  -2.02771  -1.69731
C    -1.92523   0.07426   0.40027
C    -3.19053   0.08467  -0.21854
C    -4.31106   0.58060   0.45011
C    -4.19270   1.09353   1.74624
C    -2.94003   1.10520   2.36905
C    -1.82186   0.59842   1.70615
H     5.98290   0.09913   0.25727
H     5.21469   1.72292   0.12457
H     5.35437   0.67982  -1.32790
H     1.89651  -2.28801  -0.17420
H     2.69250  -1.51627   1.23036
H     0.90056  -1.74663   1.17866
H    -0.81905   2.04296  -0.32207
H     0.86427   2.39514   0.17831
H     0.48992   2.01981  -1.53206
H    -2.47922  -2.51347  -0.05762
H    -1.49327  -3.64632  -1.04203
H    -2.52132  -2.43933  -1.83707
H    -3.29323  -0.28039  -1.24129
H    -5.28202   0.57959  -0.05127
H    -5.07012   1.48596   2.26555
H    -2.83457   1.50360   3.38116
H    -0.84943   0.60071   2.20429
