63
Generated by autodE on: 2022-12-31. E = -1825.531360 Ha
C    -7.36591  -1.26295  52.31715
N    -6.54729  -1.01542  53.48466
C    -6.66849   0.07813  54.25212
O    -7.61371   0.86452  54.20719
C    -5.49835   0.26848  55.24826
C    -5.78997   1.32510  56.34915
C    -7.13010   1.30661  57.03305
O    -4.89359   2.04972  56.74279
N    -5.32749  -1.03187  55.93255
N    -3.97812  -1.04810  56.37169
C    -3.69048  -1.11433  57.71878
O    -2.59708  -0.95547  58.22610
O    -4.79783  -1.43594  58.41084
C    -4.64511  -1.56916  59.83044
C    -3.24339  -0.34605  55.37308
C    -4.07364   0.44539  54.65049
C    -3.65328   1.43581  53.55089
C    -3.12287   0.65054  52.30745
O    -3.65172  -0.41165  51.97666
N    -2.16959   1.25153  51.58093
C    -1.60641   0.64178  50.39160
C    -4.86118   2.22445  52.95775
F    -4.44753   3.17462  52.09803
F    -5.57191   2.85408  53.90980
F    -5.71100   1.45899  52.25562
C    -2.73840   2.57687  54.11465
C    -1.32803   2.33700  54.66723
C    -1.20625   1.67990  56.05350
C    -0.83368   0.20083  56.06235
C    -1.75158  -0.68929  55.22012
O    -1.52397  -2.01855  55.63781
C    -2.13975  -3.02856  54.84525
O    -1.50429  -0.56625  53.83983
C    -0.18311  -0.80822  53.37846
H    -6.79119  -1.07369  51.39567
H    -8.23418  -0.59381  52.33918
H    -7.71906  -2.30483  52.30146
H    -5.69042  -1.55083  53.58985
H    -6.99120   1.55995  58.09333
H    -7.75787   2.08129  56.56572
H    -7.65861   0.35017  56.92916
H    -5.94737  -1.15700  56.73354
H    -5.63980  -1.82364  60.21376
H    -3.93017  -2.36997  60.06646
H    -4.29932  -0.62281  60.27002
H    -1.77263   2.12585  51.90281
H    -0.56283   0.96335  50.27797
H    -2.16303   0.92638  49.48271
H    -1.63880  -0.45176  50.48391
H    -2.63672   3.32705  53.31972
H    -3.32963   3.06432  54.90231
H    -0.90406   3.35074  54.74133
H    -0.69897   1.81596  53.93256
H    -0.42496   2.20704  56.62291
H    -2.14107   1.82940  56.61729
H     0.19065   0.06054  55.68737
H    -0.85675  -0.17889  57.08744
H    -1.61875  -3.16675  53.88432
H    -3.19897  -2.80635  54.63875
H    -2.07924  -3.96088  55.42309
H     0.44223   0.09784  53.43048
H     0.30241  -1.61392  53.94915
H    -0.26784  -1.12028  52.32894
