25
Generated by autodE on: 2023-01-01. E = -738.849414 Ha
C    -2.36406   0.27469  -3.82693
N    -1.79212   0.44505  -2.50328
C    -0.70222  -0.23529  -2.12638
O    -0.11496  -1.03704  -2.86581
C    -0.17371   0.00128  -0.74085
N     0.92570  -0.67944  -0.52241
N     1.74318  -0.81836   0.50027
C     1.21176  -0.58091   1.73411
O     0.02380  -0.44152   2.02352
O     2.18558  -0.59374   2.66024
C     1.76983  -0.43314   4.01981
C    -0.66893   1.07079   0.20004
C    -2.09832   1.03730   0.65962
O     0.09652   1.97968   0.47268
H    -3.27579   0.87900  -3.89564
H    -1.65862   0.59849  -4.60811
H    -2.61653  -0.78076  -4.01005
H    -2.23320   1.10148  -1.86944
H     1.20357  -1.21525  -1.36445
H     1.22737   0.51452   4.15338
H     1.12416  -1.26749   4.33229
H     2.68887  -0.42764   4.61803
H    -2.67756   1.78726   0.09274
H    -2.13167   1.33915   1.71540
H    -2.55793   0.04927   0.53033
