45
Generated by autodE on: 2022-06-21. E = -993.882213 Ha
C     0.48433  -1.67419   2.64785
N    -0.18949  -1.06721   1.51312
C    -0.78630  -1.82105   0.55852
C    -1.58112  -1.33260  -0.43654
C    -2.06928  -2.28693  -1.44014
N    -2.79189  -1.76946  -2.46775
O    -1.85034  -3.51569  -1.38580
C    -1.88329   0.14231  -0.52717
C    -1.56596   0.89336   0.77777
C    -0.30073   0.36395   1.46837
C     0.87887   1.14592   0.71090
C     1.86747   1.58075   1.71630
N     2.63105   1.96078   2.50532
C     1.58670   0.27534  -0.33789
C     2.46435  -0.74289   0.06207
C     3.04268  -1.59314  -0.88289
C     2.75806  -1.43039  -2.24255
C     1.90342  -0.40178  -2.64801
C     1.32390   0.44696  -1.70056
N     0.19094   2.30208   0.13232
C    -1.21912   2.38749   0.58023
C    -1.35924   3.17440   1.89507
C    -2.05745   3.08605  -0.49175
H     1.39786  -1.11640   2.89885
H    -0.16173  -1.68809   3.54402
H     0.76584  -2.70679   2.40177
H    -0.59631  -2.89448   0.61985
H    -3.11807  -2.39769  -3.19345
H    -2.94860  -0.77633  -2.58106
H    -2.94868   0.30122  -0.75994
H    -1.32432   0.58479  -1.36604
H    -2.41281   0.78551   1.47011
H    -0.29625   0.72038   2.50433
H     2.70636  -0.87687   1.11755
H     3.71941  -2.38542  -0.55426
H     3.20755  -2.09726  -2.98215
H     1.68368  -0.25689  -3.70855
H     0.65927   1.25279  -2.00815
H     0.69659   3.17411   0.26874
H    -1.00304   4.20661   1.74914
H    -0.77295   2.73457   2.71493
H    -2.41232   3.22074   2.21304
H    -1.94698   2.60897  -1.47436
H    -3.12299   3.08047  -0.21463
H    -1.74027   4.13634  -0.58957
