25
Generated by autodE on: 2022-06-21. E = -536.117197 Ha
C    -3.15682  -1.19030  -0.31277
C    -2.70757   0.21796  -0.17105
C    -3.68895   1.33205  -0.26902
N    -1.44700   0.50492   0.05009
C    -0.35811  -0.33194   0.32374
C    -0.56372  -1.48898   1.08236
N    -0.70771  -2.45371   1.73851
C     0.97517   0.11150  -0.04715
C     2.12801  -0.54329   0.45513
C     3.40757  -0.11233   0.11559
C     3.59415   0.99149  -0.72837
C     2.46800   1.64442  -1.23864
C     1.18034   1.20950  -0.91810
H    -4.12731  -1.22408  -0.82583
H    -3.27227  -1.68531   0.66713
H    -2.41207  -1.77459  -0.87846
H    -3.20255   2.31734  -0.23058
H    -4.26894   1.24206  -1.20204
H    -4.41445   1.26732   0.56120
H    -1.21875   1.50369   0.03283
H     2.00794  -1.39687   1.12646
H     4.27385  -0.64110   0.52219
H     4.59966   1.32908  -0.98883
H     2.58849   2.49796  -1.91116
H     0.32753   1.71884  -1.37198
