45
Generated by autodE on: 2022-06-21. E = -993.824353 Ha. Imaginary frequency = -392.6 cm-1
C     0.65411  -1.92329   1.88882
N    -0.39348  -1.25047   1.13370
C    -0.96263  -1.85240   0.04563
C    -1.94202  -1.27422  -0.70019
C    -2.47238  -2.04318  -1.83626
N    -3.36462  -1.40255  -2.63317
O    -2.13133  -3.21764  -2.08596
C    -2.34148   0.16420  -0.45613
C    -1.84033   0.69359   0.88502
C    -0.86625  -0.03591   1.57755
C     1.21816   1.39381   0.63497
C     1.73056   1.80687   1.88096
N     2.19052   2.09118   2.92262
C     1.93671   0.36557  -0.11033
C     3.19194  -0.12095   0.32877
C     3.84121  -1.15196  -0.34355
C     3.27004  -1.73281  -1.48511
C     2.03619  -1.25924  -1.93815
C     1.37425  -0.23285  -1.26093
N     0.25812   2.16424  -0.01796
C    -0.94063   2.55266   0.51089
C    -0.96862   3.13135   1.90524
C    -1.84083   3.26845  -0.46219
H     1.36037  -1.17958   2.27785
H     0.23393  -2.48960   2.73747
H     1.19813  -2.61359   1.23238
H    -0.59877  -2.85361  -0.18565
H    -3.74199  -1.89749  -3.43371
H    -3.64186  -0.44103  -2.48334
H    -3.43662   0.28203  -0.50518
H    -1.94767   0.78243  -1.28699
H    -2.57409   1.20011   1.51623
H    -0.59411   0.21295   2.60309
H     3.65557   0.31866   1.21431
H     4.80774  -1.50606   0.02414
H     3.78018  -2.54432  -2.00879
H     1.56534  -1.70581  -2.81761
H     0.39482   0.08170  -1.62122
H     0.22703   2.01213  -1.02342
H    -0.40052   4.07749   1.91858
H    -0.53865   2.47049   2.66459
H    -2.00661   3.35557   2.18656
H    -1.73529   2.87956  -1.48548
H    -2.89063   3.17107  -0.15113
H    -1.59789   4.34479  -0.47909
