39
Generated by autodE on: 2022-05-29. E = -898.125539 Ha
C     3.00989   2.53345   0.42108
O     2.12577   1.40317   0.53608
C     1.72260   0.84554  -0.58984
O     2.06969   1.19057  -1.69939
C     0.70379  -0.29095  -0.38017
C     1.06845  -1.33107  -1.38295
N     1.39350  -2.21238  -2.06404
N     0.69477  -0.85118   0.95555
C     1.84611  -1.62490   1.38798
C    -0.62294  -1.40873   1.22671
C    -0.75932  -2.80937   0.75657
N    -0.83483  -3.90672   0.38547
C    -1.61711  -0.48004   0.49981
C    -2.16193   0.67081   1.37143
C    -3.22902   1.41649   0.53862
C    -2.37266   2.23279  -0.47371
C    -0.93404   1.75522  -0.17953
C    -0.99420   1.67474   1.35928
C    -0.78089   0.25601  -0.61176
C    -1.24909  -0.02891  -2.03545
H     2.50826   3.34916  -0.11819
H     3.92681   2.24442  -0.11065
H     3.23966   2.83700   1.44811
H     2.76273  -1.03608   1.24821
H     1.74236  -1.85031   2.45928
H     1.95786  -2.58179   0.84210
H    -0.79994  -1.42962   2.31424
H    -2.43510  -1.06705   0.06382
H    -2.51246   0.33237   2.35606
H    -3.91855   0.71679   0.04247
H    -3.83097   2.07702   1.17973
H    -2.43008   3.30931  -0.25581
H    -2.68202   2.10045  -1.51744
H    -0.17398   2.41691  -0.61448
H    -1.26038   2.64131   1.81336
H    -0.07991   1.29765   1.82672
H    -1.19317  -1.10226  -2.26271
H    -0.63172   0.51424  -2.76806
H    -2.29422   0.27387  -2.17049
