20
Generated by autodE on: 2022-05-29. E = -312.193372 Ha
C     2.45668   0.64747   0.28662
C     1.07583   0.30014  -0.15616
C     0.19095   1.02771  -0.86497
C    -1.13169   0.27736  -0.86940
C    -1.69272   0.37204   0.58828
C    -0.66871  -0.47091   1.40415
C     0.33749  -0.95260   0.30844
C    -0.62270  -1.18069  -0.87654
H     2.51388   0.68855   1.38933
H     3.18458  -0.11924  -0.03213
H     2.78184   1.62172  -0.10939
H     0.33986   2.03992  -1.24964
H    -1.85110   0.56285  -1.64873
H    -2.70248  -0.06406   0.64178
H    -1.76028   1.41511   0.93018
H    -1.15393  -1.33458   1.88422
H    -0.16376   0.10785   2.19176
H     0.97575  -1.79212   0.61680
H    -1.41045  -1.92247  -0.66693
H    -0.10001  -1.44800  -1.80742
