19
Generated by autodE on: 2022-05-29. E = -585.866351 Ha
C     3.57009  -0.29384  -1.14284
O     2.21285  -0.74131  -1.03436
C     1.37068   0.04786  -0.34809
O     1.71979   1.10272   0.16658
C     0.02957  -0.52109  -0.30911
C    -0.20748  -1.75276  -0.95828
N    -0.38717  -2.77092  -1.50076
N    -1.02125   0.09204   0.33509
C    -2.31969  -0.61940   0.28146
C    -0.93705   1.24789   0.97766
C    -2.04165   1.84022   1.62095
N    -2.90312   2.39728   2.17737
H     3.61797   0.67473  -1.66150
H     4.09218  -1.06096  -1.72626
H     4.02693  -0.19857  -0.14702
H    -2.62761  -0.71314  -0.76692
H    -3.07031  -0.05464   0.83978
H    -2.19544  -1.61418   0.72532
H     0.02819   1.75241   1.00157
