19
Generated by autodE on: 2022-07-26. E = -585.860038 Ha
C     1.79579   2.81041  -1.57085
O     1.15946   1.54968  -1.32989
C     0.86067   1.25992  -0.05042
O     1.12551   2.00734   0.87654
C     0.17996  -0.03386   0.03192
C    -0.09995  -0.72143  -1.16911
N    -0.27963  -1.30065  -2.16686
N    -0.16150  -0.60753   1.23449
C     0.53233  -0.16436   2.46989
C    -1.06023  -1.56988   1.40403
C    -1.99707  -1.97566   0.43231
N    -2.84178  -2.33025  -0.28983
H     1.94203   2.87017  -2.65555
H     2.76568   2.85944  -1.05468
H     1.15800   3.63837  -1.22827
H     0.36013  -0.91958   3.24206
H     0.11664   0.79844   2.78449
H     1.60146  -0.05685   2.26682
H    -1.11379  -2.04786   2.38211
