39
Generated by autodE on: 2022-05-29. E = -898.047081 Ha. Imaginary frequency = -278.5 cm-1
C     2.87128   2.39652  -1.55801
O     2.25476   1.10864  -1.46101
C     1.98877   0.66041  -0.21368
O     2.28094   1.30271   0.78588
C     1.28513  -0.61259  -0.25626
C     1.20526  -1.27414  -1.50305
N     1.17600  -1.80491  -2.54323
N     0.91799  -1.28194   0.90818
C     1.64058  -1.07781   2.17783
C    -0.26976  -1.92999   0.99245
C    -0.75333  -2.78779  -0.04918
N    -1.22347  -3.51680  -0.82421
C    -1.80885  -0.40492   0.57918
C    -2.00521   0.50177   1.78873
C    -3.19290   1.43826   1.39841
C    -2.57489   2.33422   0.28526
C    -1.10886   1.78704   0.16341
C    -0.82309   1.47568   1.64288
C    -1.28573   0.40731  -0.43805
C    -1.42886   0.19655  -1.90391
H     2.99229   2.59195  -2.63008
H     3.85275   2.39765  -1.06159
H     2.23347   3.16905  -1.10386
H     2.67983  -0.81618   1.96569
H     1.61248  -2.02122   2.73603
H     1.18366  -0.28672   2.78661
H    -0.51721  -2.30837   1.98895
H    -2.53586  -1.18840   0.35212
H    -2.12398  -0.00811   2.75314
H    -3.50557   2.03592   2.26786
H    -4.06657   0.86712   1.05204
H    -2.53910   3.39024   0.59168
H    -3.11917   2.27913  -0.66787
H    -0.41846   2.45440  -0.36840
H    -0.92325   2.36335   2.28528
H     0.15792   1.03042   1.81199
H    -1.50604  -0.86659  -2.16683
H    -0.59577   0.64865  -2.46282
H    -2.35464   0.69287  -2.24996
