59
Generated by autodE on: 2022-07-02. E = -4364.118172 Ha
C     5.79300 -28.27816 -12.90921
O     5.54953 -26.86112 -12.81075
C     5.01571 -26.27985 -13.85923
O     4.69529 -26.86737 -14.87437
C     4.67675 -24.78526 -13.67605
Br    5.83035 -24.05848 -12.19389
C     3.16430 -24.86219 -13.29341
C     2.57128 -23.88044 -12.29347
C     2.26428 -22.47688 -12.78806
C     3.44542 -21.61478 -13.24659
C     3.84680 -21.61911 -14.75543
C     2.53177 -21.73369 -15.56548
O     2.18402 -22.72151 -16.16994
O     1.80752 -20.63029 -15.44168
C     0.51995 -20.61728 -16.08466
C     4.46194 -20.23710 -15.10002
O     4.49848 -19.81060 -16.23792
O     4.96291 -19.60257 -14.06061
C     5.60207 -18.33499 -14.30537
C     4.79139 -22.70458 -15.28407
C     5.04399 -23.97538 -14.91012
C     5.91587 -24.63689 -15.98879
C     7.11164 -25.30220 -15.44126
N     8.05126 -25.80470 -14.98724
C     5.08481 -25.55468 -16.93473
O     3.96726 -25.25307 -17.27713
O     5.81051 -26.54668 -17.41196
C     5.16624 -27.42638 -18.35290
O     6.35923 -23.58091 -16.82477
C     5.59250 -22.41088 -16.57257
C     4.74853 -22.15304 -17.76088
N     4.12150 -22.01328 -18.72459
C     6.68810 -21.32616 -16.38004
O     7.21008 -21.13754 -15.30729
O     7.01846 -20.76245 -17.52220
C     8.07702 -19.78353 -17.48895
H     6.23149 -28.56934 -11.94877
H     6.49468 -28.47657 -13.73109
H     4.84911 -28.81272 -13.08350
H     3.00536 -25.86439 -12.87034
H     2.61671 -24.83331 -14.24860
H     1.62434 -24.32989 -11.95484
H     3.21716 -23.83516 -11.40311
H     1.48631 -22.52710 -13.56619
H     1.79565 -21.93678 -11.95074
H     3.16351 -20.57653 -13.04653
H     4.34171 -21.80771 -12.64508
H     0.09220 -19.63052 -15.87656
H    -0.11783 -21.40915 -15.66757
H     0.63920 -20.76585 -17.16684
H     4.90298 -17.64796 -14.80056
H     5.88619 -17.95274 -13.31912
H     6.49273 -18.48293 -14.93104
H     4.30898 -27.91758 -17.87157
H     5.92287 -28.16527 -18.63761
H     4.82931 -26.85908 -19.23140
H     7.75410 -18.91566 -16.89700
H     8.98424 -20.22276 -17.05294
H     8.24761 -19.49533 -18.53155
