21
Generated by autodE on: 2022-07-02. E = -794.335259 Ha
C     2.68148   2.35148   1.75694
O     1.75429   1.46450   1.10577
C     2.27828   0.45331   0.42856
O     3.46366   0.20797   0.31464
C     1.25004  -0.39224  -0.21212
C     1.64661  -1.50971  -0.98219
N     2.01454  -2.42187  -1.60658
O     0.00619  -0.05122  -0.03420
C    -1.15039  -0.50853  -0.41782
C    -1.30037  -1.64737  -1.24232
N    -1.46564  -2.57963  -1.92113
C    -2.35134   0.21593   0.04672
O    -3.46975  -0.14414  -0.26594
O    -2.05367   1.25589   0.81197
C    -3.16292   2.02227   1.31502
H     3.34868   2.81312   1.01539
H     2.06797   3.11451   2.24822
H     3.27661   1.80031   2.49870
H    -3.74324   2.44167   0.48108
H    -2.72178   2.82425   1.91678
H    -3.81134   1.38760   1.93546
