38
Generated by autodE on: 2022-07-02. E = -3569.674020 Ha
C     2.36304  -1.73158   4.32823
O     1.95055  -1.81460   2.95329
C     1.51630  -0.69680   2.38883
O     1.41839   0.37009   2.95475
C     1.13780  -0.90679   0.92291
Br    2.93541  -0.89563  -0.03966
C     0.33870   0.16516   0.37762
C    -0.52474   0.67112  -0.30429
C    -1.63068   0.75479  -1.24957
C    -2.99848   0.97204  -0.57885
O    -3.98080   1.28228  -1.21791
O    -2.98764   0.74093   0.72452
C    -4.24378   0.86439   1.41779
C    -1.45270   1.92134  -2.23871
O    -1.39384   1.80478  -3.43990
O    -1.37644   3.07691  -1.58548
C    -1.22962   4.26747  -2.37934
C    -1.65830  -0.61496  -2.00191
C    -1.55962  -1.86846  -1.10967
C    -0.14462  -2.42587  -0.78274
C     0.41529  -2.23972   0.63963
H     2.67906  -2.74271   4.60769
H     3.20003  -1.02605   4.42971
H     1.52400  -1.40365   4.95790
H    -4.63212   1.88714   1.31505
H    -4.97089   0.14754   1.01164
H    -4.02786   0.63909   2.46787
H    -2.08997   4.38059  -3.05405
H    -0.30177   4.21987  -2.96651
H    -1.18943   5.09963  -1.66779
H    -0.82990  -0.60083  -2.72483
H    -2.59069  -0.63599  -2.58477
H    -2.09562  -2.66015  -1.65409
H    -2.13072  -1.71792  -0.17859
H    -0.18334  -3.51428  -0.93891
H     0.58731  -2.05169  -1.51761
H     1.11201  -3.05330   0.88264
H    -0.40833  -2.29971   1.37259
