23
Generated by autodE on: 2022-10-26. E = -625.456079 Ha
C    -2.16560   2.69221  -0.06373
N    -1.34834   1.86863   0.79940
C    -1.02064   0.59380   0.47103
O    -1.30916   0.10786  -0.63888
N    -0.42721  -0.07795   1.52429
N     0.13610  -1.24477   1.26209
C     0.06223  -2.17827   2.40362
C     0.72846  -1.65895   0.16202
C     1.07380  -0.83191  -1.00694
O     1.10901  -1.28625  -2.13535
O     1.45975   0.40698  -0.68868
C     1.71420   1.30124  -1.78024
H    -2.11311   3.73383   0.27877
H    -1.79537   2.64477  -1.09804
H    -3.22556   2.38115  -0.06998
H    -1.21782   2.14404   1.76674
H    -0.99522  -2.39131   2.60553
H     0.61221  -3.09733   2.17627
H     0.50318  -1.67558   3.27332
H     1.01158  -2.70946   0.11605
H     0.81760   1.39119  -2.41025
H     1.95600   2.26895  -1.32615
H     2.55843   0.94395  -2.38723
