23
Generated by autodE on: 2022-10-21. E = -625.455583 Ha
C    -4.38660   0.96752   0.75756
N    -3.46025   0.03508   0.15723
C    -2.11744   0.19342   0.26921
O    -1.62949   1.17419   0.85802
N    -1.45331  -0.87006  -0.33498
N    -0.13986  -0.88237  -0.41532
C     0.35179  -2.14371  -1.02271
C     0.71653   0.06137  -0.04384
C     2.16586  -0.03545  -0.18091
O     2.83214  -0.95439  -0.63146
O     2.72071   1.10204   0.28678
C     4.14832   1.18671   0.22717
H    -4.19433   1.99627   0.41386
H    -4.31972   0.96626   1.85931
H    -5.40808   0.68831   0.47081
H    -3.80414  -0.81045  -0.28333
H    -0.53137  -2.74506  -1.24786
H     0.91637  -1.91488  -1.93273
H     1.00815  -2.65683  -0.31178
H     0.29161   0.95713   0.39332
H     4.61068   0.38559   0.82289
H     4.49913   1.11171  -0.81288
H     4.41119   2.16601   0.64413
