40
Generated by autodE on: 2022-10-21. E = -1146.803819 Ha. Imaginary frequency = -213.4 cm-1
C    -1.39648   4.02811   1.03521
N    -1.16633   2.69908   1.56791
C    -1.51280   1.59681   0.81933
O    -2.36014   1.67582  -0.09211
N    -1.03680   0.38071   1.20728
N     0.09457   0.21653   1.90277
C    -0.06846  -0.64527   3.08775
C     1.31026   0.28879   1.37378
C     1.78072   1.10942   0.24091
O     2.92092   0.98776  -0.17941
O     0.90841   1.98423  -0.23779
C     1.30385   2.74784  -1.38447
C     0.83551  -1.66161  -0.18998
F     1.41537  -2.59248   0.60038
C     1.39323  -1.35764  -1.58317
C     0.88987  -2.46237  -2.54913
C    -0.42597  -2.25331  -2.66761
C    -0.71561  -1.02473  -1.76576
O     0.50133  -0.28587  -1.93131
C    -0.53059  -1.55224  -0.33145
O    -1.41167  -2.31163   0.32178
C    -2.79582  -2.00445   0.13446
H    -0.70269   4.28864   0.21546
H    -2.42169   4.10296   0.65069
H    -1.27403   4.76786   1.83864
H    -0.31853   2.60144   2.11785
H    -0.34440  -1.65473   2.75192
H     0.86633  -0.68081   3.65819
H    -0.87550  -0.22833   3.70171
H     2.11768  -0.14605   1.96185
H     0.42029   3.32821  -1.67170
H     2.13663   3.41814  -1.12789
H     1.60109   2.07833  -2.20215
H     2.44412  -1.05906  -1.64938
H     1.51194  -3.24086  -2.98928
H    -1.17680  -2.81537  -3.22124
H    -1.60005  -0.41570  -1.97274
H    -2.97218  -0.93837   0.34128
H    -3.11310  -2.24505  -0.89246
H    -3.35321  -2.62853   0.84390
