11
Generated by autodE on: 2022-05-25. E = -393.762416 Ha
C    -3.14503  -0.12400   0.06931
C    -1.85437  -0.86412  -0.05318
O    -1.72063  -2.06335  -0.19583
C    -0.64591  -0.03206   0.00869
N     0.34865   0.57235   0.05548
N     1.33238   1.36745   0.12480
C     2.55524   0.85678   0.03482
N     3.68013   0.54184  -0.02948
H    -3.16868   0.42009   1.02795
H    -3.98086  -0.83306   0.00938
H    -3.21743   0.62662  -0.73520
