15
Generated by autodE on: 2022-05-25. E = -458.066918 Ha
C    -3.63579   0.66296  -0.29031
O    -2.19872   0.75462  -0.26707
C    -1.53992  -0.34572   0.08257
O    -2.05033  -1.40618   0.37799
C    -0.10378  -0.13537   0.06995
C     1.10615  -0.02250   0.07730
C     2.55887   0.12964   0.08898
C     3.26124  -0.16277  -1.20104
O     3.12008   0.47847   1.11460
H    -3.95592  -0.10492  -1.00858
H    -3.99141   1.65117  -0.60179
H    -4.01628   0.41534   0.71073
H     2.86393   0.49045  -1.99528
H     3.05596  -1.20249  -1.50524
H     4.34128  -0.00639  -1.08081
