26
Generated by autodE on: 2022-05-25. E = -851.822560 Ha. Imaginary frequency = -321.9 cm-1
C    -4.00119  -1.62453   0.27205
O    -2.78888  -1.03149  -0.22579
C    -2.36532   0.06593   0.39845
O    -2.94797   0.61766   1.30913
C    -1.10174   0.53717  -0.14414
C    -0.09068   1.05656  -0.62273
C     0.61256   2.02598  -1.49691
C     0.54314   3.45286  -1.04792
O     1.15853   1.64588  -2.51371
C     1.66144  -0.16655   0.11925
C     3.00223   0.44900  -0.05452
C     4.12749  -0.52918  -0.17645
O     3.10031   1.65604  -0.10284
N     1.06709  -1.00918   0.73449
N    -0.07310  -1.29818   1.20542
C    -0.51488  -2.54970   1.21836
N    -1.04361  -3.58957   1.29012
H    -3.87909  -1.90335   1.32803
H    -4.16894  -2.51703  -0.34058
H    -4.84080  -0.92291   0.16759
H    -0.50940   3.78076  -1.04473
H     1.13591   4.08529  -1.72164
H     0.91505   3.53117  -0.01510
H     3.96468  -1.15217  -1.07153
H     4.13964  -1.20156   0.69582
H     5.07419   0.01974  -0.26042
