47
Generated by autodE on: 2022-06-02. E = -1428.995050 Ha
C    -2.68699  -2.53447  -2.01513
O    -2.04741  -1.92887  -0.88471
C    -1.44909  -0.74668  -1.09183
O    -1.54487  -0.12417  -2.12154
C    -0.78311  -0.32620   0.21934
C    -1.91899  -0.17161   1.29721
C    -2.93776   0.88850   0.81774
C    -2.20737   2.22726   1.10807
C    -0.79892   1.76350   1.53834
C    -1.19537   0.57027   2.42665
C    -0.00162   1.05756   0.37728
C     0.10745   1.97460  -0.84858
F     0.85788   1.44322  -1.83545
F     0.70924   3.13140  -0.47757
F    -1.05020   2.33433  -1.40748
C     1.45795   0.62640   0.88604
C     2.02018   1.42954   2.05811
C     2.57971   0.55611  -0.20555
C     3.43756   1.75677  -0.49352
O     2.83421  -0.51985  -0.70839
O     1.27913  -0.70745   1.37036
C     0.28259  -1.40126   0.64865
C    -0.27885  -2.41674   1.55833
N    -0.68114  -3.25471   2.25050
C     0.96383  -2.21090  -0.53225
C     1.97915  -3.22639  -0.10402
O     0.60629  -2.05953  -1.67774
H    -1.95197  -2.71178  -2.81360
H    -3.49387  -1.89065  -2.39278
H    -3.09589  -3.48591  -1.65658
H    -2.37521  -1.13400   1.54597
H    -3.86315   0.79583   1.40277
H    -3.21128   0.77512  -0.24026
H    -2.23097   2.93831   0.27870
H    -2.65556   2.73159   1.97613
H    -0.21725   2.56072   2.00914
H    -1.88343   0.87400   3.22794
H    -0.36367   0.01654   2.87335
H     1.38624   1.32746   2.94479
H     3.01906   1.04504   2.30984
H     2.10990   2.49195   1.80272
H     4.27009   1.74106   0.23008
H     2.92134   2.71491  -0.38413
H     3.86105   1.65580  -1.50126
H     2.50113  -2.92549   0.81231
H     1.44500  -4.17151   0.09469
H     2.69157  -3.39464  -0.92129
