21
Generated by autodE on: 2022-06-02. E = -590.895845 Ha
C    -2.19126   1.17263   1.23380
C    -2.23318  -0.05160   0.35569
O    -3.28111  -0.65253   0.10627
C    -0.97862  -0.52360  -0.20847
C    -0.96055  -1.66581  -1.03793
N    -1.03803  -2.61634  -1.71167
O     0.11038   0.18354   0.11514
C     1.36178   0.09935  -0.17143
C     1.93849  -0.94169  -1.03868
C     2.18498   1.16612   0.46319
C     1.48966   2.17561   1.33064
O     3.39082   1.17646   0.25296
H    -3.21079   1.40260   1.56804
H    -1.54348   1.00098   2.10747
H    -1.77617   2.03158   0.68438
H     3.01874  -0.77899  -1.11933
H     1.48454  -0.90735  -2.04338
H     1.74727  -1.94519  -0.62249
H     2.23080   2.88473   1.71900
H     0.72107   2.71275   0.75335
H     0.97490   1.67445   2.16509
