21
Generated by autodE on: 2022-07-27. E = -590.877649 Ha
C     1.33955  -1.75260  -0.43759
C    -0.16206  -1.64697  -0.40116
O    -0.87120  -2.50155  -0.93713
C    -0.80836  -0.62928   0.42237
C    -2.11148  -0.87471   0.91176
N    -3.19584  -1.07830   1.29455
O    -0.22440   0.43677   1.00430
C     0.72897   1.22184   0.59414
C     1.23176   2.17232   1.61386
C     1.03806   1.35045  -0.84969
C     1.95768   2.47163  -1.23671
O     0.48259   0.63610  -1.67895
H     1.85648  -1.08749   0.26840
H     1.59612  -2.79742  -0.20701
H     1.69819  -1.52742  -1.45301
H     0.75527   1.97416   2.58189
H     2.32477   2.06776   1.71858
H     1.03895   3.21568   1.31429
H     2.11279   2.44923  -2.32236
H     1.53638   3.44601  -0.94264
H     2.92215   2.36377  -0.71528
