26
Generated by autodE on: 2022-06-02. E = -838.043791 Ha
C     3.62288  -1.40900   1.03661
O     2.19041  -1.35296   1.07774
C     1.61759  -0.23594   0.60746
O     2.25144   0.70870   0.17383
C     0.14717  -0.30976   0.69163
C    -0.74766   0.40760  -0.02641
C    -0.48058   1.43124  -1.08881
F     0.03937   2.56761  -0.58880
F    -1.61969   1.77135  -1.72442
F     0.36943   0.99007  -2.03722
C    -2.12212  -0.17055   0.24679
C    -2.12820  -1.56174  -0.47670
C    -1.10716  -2.38859   0.35203
C    -0.63847  -1.37193   1.44450
C    -1.94928  -0.60831   1.71480
H     4.05677  -0.60014   1.64229
H     3.89930  -2.38477   1.45220
H     3.98163  -1.32059   0.00084
H    -2.96768   0.47849  -0.00430
H    -3.13771  -1.99434  -0.42422
H    -1.85318  -1.46614  -1.53628
H    -0.26004  -2.75686  -0.24297
H    -1.58664  -3.25320   0.83335
H    -0.11878  -1.82103   2.29732
H    -2.76409  -1.25783   2.06709
H    -1.82043   0.23954   2.40328
