47
Generated by autodE on: 2022-06-02. E = -1428.915329 Ha. Imaginary frequency = -231.1 cm-1
C    -2.76458  -2.26693  -2.13386
O    -2.38044  -1.48933  -0.99356
C    -1.35237  -0.64631  -1.15979
O    -0.77740  -0.49860  -2.22039
C    -1.05204   0.07624   0.10004
C    -2.02285   0.06976   1.27596
C    -3.05356   1.19857   0.93679
C    -2.23425   2.49968   1.15491
C    -0.80587   1.95231   1.48706
C    -1.19530   0.75684   2.37327
C    -0.30675   1.25481   0.21522
C     0.09389   2.15430  -0.92923
F     0.89770   1.62962  -1.86220
F    -1.00029   2.59757  -1.59961
F     0.71975   3.25844  -0.46012
C     1.91960   0.25298   1.01359
C     2.37538   1.20870   2.05931
C     2.52364   0.22196  -0.34073
C     3.49306   1.31318  -0.68866
O     2.25708  -0.68783  -1.11986
O     1.27381  -0.79508   1.48208
C     0.53282  -1.72451   0.86036
C    -0.34736  -2.40401   1.74860
N    -1.10423  -2.97783   2.42527
C     1.05621  -2.63764  -0.23311
C     2.44854  -3.18028  -0.04926
O     0.28381  -3.08445  -1.06113
H    -1.93558  -2.91716  -2.44497
H    -3.05320  -1.61253  -2.96901
H    -3.62117  -2.87055  -1.81216
H    -2.47674  -0.89666   1.50650
H    -3.90566   1.13284   1.62849
H    -3.44233   1.10028  -0.08659
H    -2.59951   3.06032   2.02733
H    -2.24866   3.17548   0.29217
H    -0.12192   2.69789   1.90580
H    -1.81272   1.06495   3.22874
H    -0.35277   0.16586   2.74312
H     1.76182   1.10927   2.96245
H     3.42947   1.01302   2.32297
H     2.31528   2.24089   1.69012
H     3.74753   1.24446  -1.75322
H     3.10091   2.31160  -0.45452
H     4.40531   1.17188  -0.08433
H     3.07799  -2.54885   0.58856
H     2.34192  -4.16792   0.43202
H     2.91905  -3.32150  -1.03233
