38
Generated by autodE on: 2022-05-29. E = -1451.852469 Ha
C    -1.54223   3.69073   0.57946
N    -1.51405   2.25728   0.36836
C    -0.43034   1.52911   0.65203
O     0.58667   2.03154   1.14927
C    -0.50671   0.00692   0.41458
C    -1.82278  -0.52294   1.14716
C    -1.92083  -2.03788   1.11200
C    -2.24657  -2.35784  -0.14524
C    -2.30982  -1.03560  -0.88027
O    -2.78867  -0.15019   0.14037
C    -0.82469  -0.52704  -1.02379
Cl   -0.75277   0.69963  -2.36213
O     0.10801  -1.52191  -1.30685
N     0.78415  -1.90115  -0.05793
C     2.03649  -2.51508  -0.45645
C     0.84621  -0.66497   0.75551
C     0.99658  -1.02421   2.23092
C     2.01445   0.21034   0.24450
O     2.09387   0.62133  -0.89469
O     3.00412   0.32710   1.13221
C     4.14936   1.08149   0.71493
H    -2.53262   4.06929   0.29927
H    -0.78029   4.19772  -0.03420
H    -1.34944   3.94139   1.63437
H    -2.32041   1.77291  -0.01748
H    -2.02319  -0.02622   2.10119
H    -1.70871  -2.69769   1.95110
H    -2.34490  -3.34195  -0.60082
H    -2.90368  -0.96785  -1.79616
H     1.81948  -3.45816  -0.97758
H     2.65201  -1.87680  -1.11396
H     2.59926  -2.74944   0.45771
H     0.17869  -1.67669   2.55611
H     1.94465  -1.54712   2.41041
H     0.98804  -0.10939   2.83713
H     3.85558   2.11379   0.47448
H     4.84376   1.07237   1.56307
H     4.61836   0.62024  -0.16604
