18
Generated by autodE on: 2022-07-26. E = -476.540464 Ha
C     1.01381   2.94316   0.71299
O     0.62975   1.59285   0.99116
C     0.26404   0.84458  -0.06761
O     0.25883   1.29074  -1.20115
C    -0.10432  -0.52572   0.35277
C    -0.00932  -0.95930   1.78517
N    -0.52826  -1.38858  -0.56685
C    -0.88845  -2.76381  -0.14125
O    -0.66215  -1.15581  -1.80082
H     0.18371   3.49507   0.24783
H     1.26904   3.38986   1.68110
H     1.88515   2.96878   0.04197
H    -0.98765  -1.28194   2.17675
H     0.68802  -1.80404   1.90745
H     0.34799  -0.13219   2.40407
H    -1.20141  -3.28850  -1.04770
H    -0.01764  -3.25493   0.31149
H    -1.70639  -2.72726   0.58955
