38
Generated by autodE on: 2022-05-29. E = -1451.787702 Ha. Imaginary frequency = -310.3 cm-1
C    -0.04018   3.73868   0.70884
N    -0.29895   2.41762   0.17327
C    -0.59544   1.37799   0.98046
O    -0.67702   1.53066   2.21332
C    -0.82223   0.03901   0.38523
C    -1.86866  -0.82797   1.16326
C    -1.53079  -2.30816   1.04718
C    -1.78514  -2.63130  -0.22495
C    -2.27941  -1.33798  -0.86200
O    -2.98595  -0.73428   0.23862
C    -1.07526  -0.35004  -0.95664
Cl   -1.07077   0.71041  -2.35043
O     0.47912  -1.36715  -1.50742
N     1.09037  -1.75383  -0.42428
C     1.27915  -3.19270  -0.21257
C     1.34293  -0.81167   0.50639
C     1.66721  -1.23329   1.90808
C     1.97681   0.45985   0.01321
O     2.15824   0.76828  -1.14597
O     2.41154   1.20085   1.03877
C     3.16148   2.37730   0.70522
H    -0.95968   4.20516   1.10086
H     0.36034   4.37421  -0.09066
H     0.68860   3.69429   1.53125
H    -0.24131   2.27193  -0.82799
H    -2.11768  -0.43277   2.15055
H    -1.10337  -2.91557   1.84322
H    -1.61284  -3.56654  -0.75403
H    -2.88670  -1.40398  -1.77003
H     0.94741  -3.68752  -1.13085
H     2.35044  -3.38548  -0.05621
H     0.71483  -3.58229   0.64059
H     1.10651  -2.12683   2.20356
H     2.74466  -1.43727   2.02451
H     1.40420  -0.41638   2.59182
H     2.60162   3.01439   0.00900
H     3.33530   2.90222   1.65110
H     4.11977   2.09309   0.24619
