47
Generated by autodE on: 2022-06-21. E = -1015.911326 Ha
C     0.09255  -3.62011  -1.29440
N    -0.34314  -2.39176  -0.66472
C    -0.32120  -1.19532  -1.26700
O     0.05687  -1.01353  -2.43047
C    -0.82561  -0.01670  -0.41179
C    -2.21875   0.42208  -0.89582
C    -3.17270   0.90518   0.01436
C    -4.41752   1.36444  -0.42547
C    -4.73694   1.34700  -1.78472
C    -3.79692   0.86360  -2.69891
C    -2.55214   0.40689  -2.26092
N    -0.91966  -0.43200   0.99904
C    -0.48305   0.52134   1.73168
C    -0.46351   0.40055   3.16632
N    -0.42407   0.33733   4.32536
C    -0.01945   1.75594   1.01345
C     0.23867   1.19422  -0.40043
C     0.01907   2.23666  -1.49474
C     1.63793   0.62337  -0.51947
C     2.45764   0.26835   0.48976
C     3.77017  -0.32151   0.28412
C     4.63572  -0.72715   1.24434
C     5.96356  -1.32964   0.87922
C     4.37488  -0.62775   2.72145
H     0.90450  -4.08742  -0.71615
H     0.45914  -3.39332  -2.30237
H    -0.73723  -4.34022  -1.37156
H    -0.66478  -2.40640   0.29906
H    -2.95955   0.92574   1.08242
H    -5.14044   1.73522   0.30500
H    -5.71021   1.70462  -2.12873
H    -4.03024   0.84077  -3.76613
H    -1.83016   0.03829  -2.98686
H     0.85321   2.23324   1.47699
H    -0.84301   2.48913   1.01196
H     0.11982   1.78153  -2.49016
H     0.77659   3.03047  -1.40273
H    -0.97449   2.69939  -1.42096
H     1.97786   0.45540  -1.54526
H     2.14041   0.41657   1.52527
H     4.07239  -0.45095  -0.76199
H     6.11339  -1.37742  -0.20938
H     6.79207  -0.74719   1.32072
H     6.05622  -2.35121   1.28966
H     5.15382  -0.01317   3.20637
H     4.43956  -1.62657   3.18795
H     3.39628  -0.19814   2.97157
