23
Generated by autodE on: 2022-06-21. E = -351.521383 Ha
C     3.06855  -1.70990   1.39957
C     2.35364  -0.88674   0.60131
C     3.02290  -0.03836  -0.44969
C     0.90168  -0.80702   0.74856
C     0.07377  -0.02331   0.01283
C    -1.36207   0.01807   0.20081
C    -2.25494   0.77144  -0.48979
C    -3.72279   0.70534  -0.17550
C    -1.88915   1.71698  -1.59851
H     4.15566  -1.78920   1.31117
H     2.57951  -2.32449   2.16169
H     2.63595  -0.27294  -1.45529
H     4.11097  -0.19372  -0.45360
H     2.82646   1.03330  -0.27963
H     0.46371  -1.44373   1.52671
H     0.50313   0.61427  -0.76476
H    -1.75521  -0.63470   0.98966
H    -3.94240   0.00118   0.64041
H    -4.30064   0.39969  -1.06627
H    -4.10697   1.70134   0.10958
H    -0.81322   1.75140  -1.81251
H    -2.22394   2.74046  -1.35337
H    -2.41613   1.43786  -2.52805
