24
Generated by autodE on: 2022-06-21. E = -664.304338 Ha
C     2.98167  -2.62495   0.15321
N     1.74999  -1.87462  -0.00100
C     1.71916  -0.54124   0.16491
O     2.71710   0.13053   0.44028
C     0.38273   0.12810  -0.05390
N     0.46005   1.39246  -0.24381
C     0.63112   2.55834  -0.55968
C     0.66270   3.72481   0.20651
N     0.71222   4.78231   0.70382
C    -0.93292  -0.54546  -0.10969
C    -1.91143  -0.08330  -1.00987
C    -3.16263  -0.69522  -1.06582
C    -3.45781  -1.77252  -0.22277
C    -2.49515  -2.22982   0.68168
C    -1.23998  -1.62161   0.74398
H     2.75115  -3.69598   0.10598
H     3.70558  -2.38060  -0.64141
H     3.45284  -2.40180   1.12213
H     0.91101  -2.36346  -0.29402
H    -1.68306   0.75424  -1.67247
H    -3.91058  -0.33183  -1.77408
H    -4.43823  -2.25182  -0.26873
H    -2.72311  -3.06146   1.35201
H    -0.50609  -1.97212   1.47055
