47
Generated by autodE on: 2022-06-21. E = -1015.825440 Ha. Imaginary frequency = -319.1 cm-1
C     1.47026  -3.01644  -0.53203
N     0.40732  -2.15112  -0.06465
C    -0.22297  -1.28451  -0.88391
O     0.04565  -1.19957  -2.09066
C    -1.22877  -0.39211  -0.23523
C    -2.37062   0.21247  -0.92157
C    -3.26046   1.04646  -0.20539
C    -4.32516   1.67353  -0.84657
C    -4.53952   1.48273  -2.21702
C    -3.67537   0.65013  -2.93381
C    -2.60463   0.01839  -2.30085
N    -1.12187  -0.24649   1.07118
C    -0.75138   0.46884   1.98997
C    -0.85869   0.38331   3.38097
N    -0.85475   0.46031   4.54709
C     0.26829   2.28065   1.10251
C     0.59341   1.95516  -0.19957
C    -0.17970   2.52488  -1.36327
C     1.77143   1.16380  -0.51831
C     2.47932   0.39569   0.35374
C     3.62469  -0.39688  -0.02882
C     4.29617  -1.28739   0.74559
C     5.45523  -2.06732   0.19431
C     3.93907  -1.60587   2.16951
H     2.09144  -2.48768  -1.26536
H     1.07363  -3.93034  -1.00684
H     2.09681  -3.30751   0.32023
H     0.11793  -2.21714   0.90505
H    -3.12013   1.20492   0.86453
H    -4.99644   2.31455  -0.27035
H    -5.37583   1.97487  -2.71844
H    -3.83360   0.48777  -4.00267
H    -1.93317  -0.61806  -2.87143
H     1.00429   2.18377   1.90255
H    -0.56859   2.95510   1.30114
H    -0.32683   1.78186  -2.16190
H     0.37565   3.37011  -1.80940
H    -1.16522   2.89978  -1.05341
H     2.07344   1.15205  -1.57201
H     2.15223   0.35053   1.39639
H     3.96008  -0.27621  -1.06607
H     5.68658  -1.78926  -0.84449
H     6.36217  -1.91595   0.80713
H     5.24408  -3.15188   0.22477
H     4.78642  -1.38138   2.84173
H     3.74266  -2.68744   2.27791
H     3.05814  -1.06320   2.53586
