37
Generated by autodE on: 2022-06-18. E = -801.090514 Ha
C    -3.80766   2.53663   0.18413
N    -2.54218   1.83744   0.12165
C    -2.44530   0.48999   0.09834
O    -3.43602  -0.27354   0.12314
C    -1.05674  -0.05168   0.03328
N    -0.05745   0.72570  -0.20414
N     1.09156  -0.00000  -0.24725
C     2.32107   0.66743  -0.32306
O     3.39792   0.04236  -0.18697
N     2.23411   1.99622  -0.58353
C     3.39611   2.85139  -0.68784
C     0.88580  -1.37544   0.31698
C     1.24619  -1.32692   1.80792
C     1.70671  -2.44675  -0.39232
C    -0.67221  -1.52173   0.07801
C    -1.37182  -2.34507   1.16255
C    -1.00847  -2.11390  -1.30714
H    -4.59296   1.91641  -0.26683
H    -3.73623   3.48241  -0.37028
H    -4.10316   2.76452   1.22278
H    -1.67838   2.37057   0.13296
H     1.30600   2.40482  -0.61343
H     4.29330   2.22931  -0.78960
H     3.31779   3.50199  -1.57189
H     3.51697   3.49200   0.20215
H     2.30283  -1.04719   1.91821
H     0.63158  -0.59072   2.34696
H     1.10243  -2.31005   2.27659
H     1.64029  -2.36136  -1.48461
H     2.76320  -2.37975  -0.10729
H     1.33201  -3.43881  -0.09762
H    -0.88972  -3.33088   1.25292
H    -1.34492  -1.85474   2.14487
H    -2.42405  -2.50402   0.89523
H    -0.47325  -1.59400  -2.11490
H    -0.75264  -3.18263  -1.34960
H    -2.08753  -2.01300  -1.49102
