37
Generated by autodE on: 2022-06-18. E = -800.984090 Ha. Imaginary frequency = -388.0 cm-1
C    -4.28026   1.83263   0.74439
N    -2.88895   1.45550   0.57283
C    -2.51562   0.57579  -0.36916
O    -3.29016   0.00475  -1.13947
C    -1.06260   0.29142  -0.40102
N    -0.04458   0.82721  -0.75773
N     1.18832   0.60200  -0.99894
C     2.08095   1.29104  -0.17721
O     1.75227   2.03858   0.75331
N     3.37200   1.02317  -0.50066
C     4.45215   1.37676   0.39623
C     0.86807  -1.74395   0.19778
C     1.61373  -1.33057   1.43850
C     1.68543  -2.37420  -0.89677
C    -0.52062  -1.82102   0.20955
C    -1.26584  -1.73894   1.52994
C    -1.24728  -2.58273  -0.88186
H    -4.90648   0.94204   0.90538
H    -4.36051   2.48987   1.61809
H    -4.66323   2.36580  -0.14022
H    -2.17413   1.88420   1.15367
H     3.52380   0.27501  -1.16998
H     4.38063   2.43643   0.67910
H     4.44271   0.77591   1.32302
H     5.41042   1.21581  -0.11430
H     1.18418  -0.43060   1.90334
H     1.57685  -2.13172   2.20061
H     2.67196  -1.13039   1.22216
H     1.21626  -2.29072  -1.88562
H     2.69090  -1.93251  -0.95223
H     1.81363  -3.45529  -0.69065
H    -1.14065  -2.68320   2.09136
H    -0.90877  -0.92531   2.17574
H    -2.34553  -1.59985   1.37130
H    -0.86815  -2.34936  -1.88668
H    -1.12953  -3.67180  -0.73149
H    -2.32275  -2.36127  -0.86880
