50
Generated by autodE on: 2022-06-30. E = -1005.626418 Ha
C    -0.16566  -1.23612  -0.71061
C     0.48259  -0.44585  -0.05791
C     1.24069   0.77588   0.24653
C     0.29685   1.78961   0.92228
C     0.22445   3.13439   0.53816
C    -0.62084   4.02390   1.21327
C    -1.40391   3.58291   2.28153
C    -1.33647   2.24082   2.67381
C    -0.49470   1.35648   1.99865
C     2.44969   0.53830   1.16248
C     2.81780  -0.74776   1.57538
C     3.94091  -0.94406   2.38685
C     4.71328   0.14606   2.79435
C     4.35168   1.43547   2.38695
C     3.22825   1.62906   1.58109
C     1.75268   1.23433  -1.16103
C     0.70018   1.32922  -2.28725
C     0.44058   0.07674  -3.17393
C    -0.86442  -0.71627  -2.95584
C    -0.81181  -1.84055  -1.87419
C    -2.19046  -2.42508  -1.62616
C    -2.65415  -3.47926  -2.42600
C    -3.94352  -3.99126  -2.25500
C    -4.78852  -3.45304  -1.27894
C    -4.33434  -2.40079  -0.47710
C    -3.04464  -1.89049  -0.65088
H     0.82620   3.50638  -0.29092
H    -0.66481   5.06858   0.89577
H    -2.06404   4.27806   2.80560
H    -1.94308   1.88162   3.50877
H    -0.44594   0.31022   2.31021
H     2.21920  -1.60452   1.25929
H     4.21028  -1.95563   2.70069
H     5.59011  -0.00559   3.42831
H     4.94592   2.29666   2.70225
H     2.94946   2.64118   1.28051
H     2.54047   0.52465  -1.45814
H     2.25390   2.20544  -1.03737
H     1.04875   2.13061  -2.95760
H    -0.25564   1.69249  -1.87550
H     1.30361  -0.60933  -3.11809
H     0.41258   0.42547  -4.21847
H    -1.67487  -0.02013  -2.68203
H    -1.16752  -1.19556  -3.90061
H    -0.16214  -2.64536  -2.25796
H    -1.99455  -3.90401  -3.18769
H    -4.28804  -4.81618  -2.88360
H    -5.79561  -3.85406  -1.14165
H    -4.98678  -1.97583   0.28981
H    -2.69295  -1.06996  -0.02029
