18
Generated by autodE on: 2022-06-30. E = -493.589956 Ha
C     3.64905   0.33148  -0.41718
N     2.26516   0.38129   0.01849
C     1.68773  -0.64726   0.66177
O     2.24447  -1.69403   0.99336
C     0.27726  -0.41193   1.02542
N    -0.80372  -0.61869   0.55866
C    -1.99255  -0.55854   0.04184
C    -2.36103   0.68161  -0.63992
C    -3.75567   0.73095  -1.20716
O    -1.57083   1.62352  -0.73525
H     3.76522  -0.23663  -1.35503
H     4.26628  -0.14724   0.35513
H     4.00880   1.35528  -0.57892
H     1.67843   1.16066  -0.26931
H    -2.66404  -1.41296   0.13835
H    -4.49542   0.61346  -0.39830
H    -3.91833   1.68606  -1.72310
H    -3.90946  -0.10542  -1.90825
