60
Generated by autodE on: 2022-10-24. E = -1400.871197 Ha
C    -5.34209   2.50320  -9.57997
N    -5.06865   1.08307  -9.51126
C    -6.00552   0.19881  -9.15822
O    -7.20427   0.47862  -9.02520
C    -5.53283  -1.25006  -8.96838
C    -6.29701  -2.15039  -9.94980
O    -4.14424  -1.33511  -9.31390
C    -3.42227  -2.05433  -8.32518
C    -2.92161  -3.37004  -8.96074
C    -1.48304  -3.40788  -9.37094
O    -3.69489  -4.29066  -9.16340
C    -4.38186  -2.23339  -7.17413
C    -5.57573  -1.69166  -7.48353
C    -6.73512  -1.35137  -6.54537
C    -6.41685   0.03026  -5.90773
C    -7.00978   0.38453  -4.56930
O    -5.64873   0.80356  -6.45243
C    -8.11705  -1.33069  -7.26044
C    -9.11907  -0.25868  -6.92812
O    -8.43032  -2.28236  -7.95291
C    -6.97779  -2.38946  -5.40137
C    -6.93299  -3.87285  -5.80585
C    -5.75462  -4.61543  -5.17614
C    -4.38479  -4.39912  -5.81652
C    -3.82494  -2.96887  -5.94692
O    -4.02163  -2.29197  -4.72915
C    -3.41108  -1.00932  -4.63108
O    -2.42737  -3.03615  -6.23833
C    -1.58011  -3.70858  -5.31960
H    -6.27292   2.68637 -10.13502
H    -5.45322   2.93875  -8.57225
H    -4.51541   3.00844 -10.09488
H    -4.11226   0.74184  -9.52348
H    -6.05691  -3.20175  -9.74321
H    -7.37814  -2.00311  -9.89898
H    -5.94914  -1.90088 -10.96399
H    -2.55562  -1.45417  -8.01329
H    -1.23469  -4.36469  -9.84791
H    -1.28828  -2.57293 -10.06544
H    -0.84752  -3.24117  -8.48659
H    -8.01252  -0.02269  -4.40213
H    -6.35046  -0.04354  -3.79547
H    -7.00883   1.47635  -4.45550
H    -9.92099  -0.28179  -7.67726
H    -9.56131  -0.48171  -5.94321
H    -8.67104   0.74126  -6.88615
H    -6.23373  -2.20788  -4.62094
H    -7.95331  -2.15884  -4.95255
H    -7.86444  -4.35539  -5.47280
H    -6.91183  -3.98649  -6.89951
H    -5.94840  -5.69980  -5.22369
H    -5.70370  -4.36405  -4.10348
H    -4.37509  -4.82682  -6.82907
H    -3.65743  -4.97288  -5.22544
H    -2.32083  -1.09077  -4.49426
H    -3.61285  -0.39258  -5.51961
H    -3.84605  -0.51900  -3.74983
H    -1.52650  -4.79028  -5.52561
H    -0.57573  -3.27850  -5.44318
H    -1.90499  -3.55409  -4.27914
