22
Generated by autodE on: 2022-10-26. E = -554.006974 Ha
C    -1.56591   3.52942   0.57020
N    -0.84100   2.27665   0.51404
C    -1.45158   1.13199   0.16083
O    -2.64288   1.06604  -0.16897
C    -0.60701  -0.09970   0.17209
C    -1.15619  -1.41133  -0.16063
O     0.58705   0.06565   0.64593
C     1.59625  -0.84499   0.65579
C     1.88140  -1.66701  -0.45927
C     3.06766  -2.59624  -0.31607
O     1.24798  -1.61641  -1.54232
H    -2.35846   3.50144   1.33585
H    -0.86450   4.33559   0.81508
H    -2.04117   3.75097  -0.39814
H     0.13898   2.25070   0.77616
H    -0.78125  -2.13864   0.58717
H    -2.25070  -1.36810  -0.17739
H    -0.75923  -1.77920  -1.12684
H     2.32263  -0.62389   1.43560
H     3.76220  -2.43705  -1.15618
H     3.60433  -2.46739   0.63419
H     2.70997  -3.63733  -0.38118
