22
Generated by autodE on: 2022-10-24. E = -554.015180 Ha
C     2.77658   2.21033  -0.17509
N     1.68220   1.26419  -0.11478
C     1.87538  -0.04609  -0.37167
O     2.98353  -0.52002  -0.66678
C     0.68556  -0.92193  -0.28513
C     0.71852  -2.37202  -0.53298
O    -0.41807  -0.32493   0.02906
C    -1.63901  -0.82880   0.18367
C    -2.67457   0.08837   0.53400
C    -2.30764   1.54970   0.70212
O    -3.84282  -0.31043   0.69499
H     3.58241   1.93333   0.52329
H     2.40113   3.20445   0.09548
H     3.21137   2.25923  -1.18680
H     0.74903   1.59265   0.11086
H     0.03322  -2.63775  -1.36006
H     1.73608  -2.69114  -0.78171
H     0.36268  -2.92336   0.35793
H    -1.80114  -1.89665   0.03910
H    -1.55612   1.67708   1.49758
H    -1.87259   1.95612  -0.22480
H    -3.21174   2.11653   0.96041
