38
Generated by autodE on: 2022-10-24. E = -846.735901 Ha
C     1.67533   3.04982   1.96530
O     0.29852   2.84601   1.68079
C     0.03047   2.19711   0.46130
O     0.56479   2.91878  -0.63457
C     0.03092   4.22086  -0.84716
C     0.60888   0.83879   0.36760
C     0.58130  -0.34234   0.09843
C     0.06604  -1.62455  -0.36516
C    -0.31785  -2.50763   0.86272
C    -1.28033  -3.63304   0.62919
O     0.17676  -2.27885   1.94831
C     1.10315  -2.47247  -1.15434
C     2.54541  -2.26905  -0.80659
O     0.72149  -3.27239  -1.98512
C    -1.15790  -1.28546  -1.26786
C    -2.20595  -0.33707  -0.65046
C    -2.01305   1.19741  -0.81525
C    -1.49994   2.00811   0.39017
H     2.23080   2.09505   1.94356
H     1.73430   3.47612   2.97580
H     2.14265   3.74582   1.25007
H    -0.04487   4.78751   0.09424
H     0.72910   4.74009  -1.51848
H    -0.96080   4.18432  -1.32821
H    -1.25978  -4.31581   1.48820
H    -1.05015  -4.16960  -0.30214
H    -2.29639  -3.21826   0.52374
H     3.16397  -3.04256  -1.27912
H     2.67290  -2.27712   0.28744
H     2.86276  -1.27288  -1.15617
H    -1.63468  -2.23192  -1.55288
H    -0.76544  -0.84748  -2.19871
H    -3.15820  -0.59215  -1.14029
H    -2.35389  -0.57913   0.41613
H    -2.99859   1.61614  -1.06912
H    -1.37402   1.40272  -1.69043
H    -1.94956   3.01232   0.39010
H    -1.80359   1.53050   1.33382
