12
Generated by autodE on: 2022-06-18. E = -157.299005 Ha
C     1.57849   0.40594   0.40874
C     0.67246  -0.28683  -0.56467
C    -0.66569  -0.38301  -0.51342
C    -1.58438   0.17773   0.53059
H     1.03681   0.87288   1.24372
H     2.16816   1.19175  -0.09575
H     2.31252  -0.30180   0.83300
H     1.17838  -0.76582  -1.41263
H    -1.16119  -0.93415  -1.32283
H    -2.17196  -0.62623   1.00823
H    -2.31995   0.86549   0.07718
H    -1.05307   0.72467   1.32256
