24
Generated by autodE on: 2022-07-27. E = -816.751505 Ha
C    -4.64295  -0.20742  -1.20673
O    -3.20667  -0.11845  -1.20506
C    -2.61386  -0.14515  -0.01849
O    -3.18690  -0.23782   1.04827
C    -1.14543  -0.04644  -0.18001
O    -0.61413   0.07634  -1.39318
C     0.81062   0.14894  -1.27570
O     1.48961   0.26575  -2.27227
C     1.03808   0.05439   0.12683
C     2.30591   0.07215   0.83144
O     2.45093  -0.00388   2.04276
O     3.33565   0.18529  -0.02412
C     4.64604   0.21845   0.55422
N    -0.20193  -0.06342   0.74690
C    -0.40524  -0.18879   2.19515
H    -5.07522   0.64448  -0.66308
H    -4.96421  -1.14799  -0.73751
H    -4.94073  -0.18195  -2.26044
H     4.84745  -0.70649   1.11428
H     4.75158   1.08159   1.22778
H     5.34280   0.30909  -0.28723
H     0.12782  -1.07868   2.54742
H    -1.47534  -0.27259   2.38937
H     0.01184   0.69801   2.68514
