36
Generated by autodE on: 2022-06-18. E = -974.030359 Ha. Imaginary frequency = -466.5 cm-1
C    -4.57970  -0.60729  -1.30225
O    -3.14904  -0.45483  -1.28504
C    -2.54977  -0.59162  -0.10871
O    -3.12333  -0.83741   0.93195
C    -1.08531  -0.30917  -0.23401
O    -0.55635  -0.58107  -1.48843
C     0.82892  -0.59460  -1.35988
O     1.54694  -0.66782  -2.33481
C     1.06044  -0.51147   0.06475
C     2.35100  -0.48675   0.74513
O     2.51316  -0.59838   1.94903
O     3.35447  -0.26491  -0.11442
C     4.66699  -0.14970   0.45132
C     0.50057   1.84371  -0.33435
C     1.33392   2.45432   0.75106
C    -0.90146   1.66585  -0.24405
C    -1.66953   2.21407   0.93932
N    -0.15326  -0.72837   0.69237
C    -0.35208  -0.73175   2.14001
H    -5.04839   0.14460  -0.65176
H    -4.85834  -1.61512  -0.96414
H    -4.88271  -0.45565  -2.34395
H     4.94849  -1.07885   0.96757
H     4.70803   0.68960   1.16064
H     5.34161   0.03436  -0.39262
H     0.93462   1.87485  -1.33679
H     2.40703   2.30224   0.56661
H     1.09006   2.06354   1.74843
H     1.15960   3.54711   0.78192
H    -1.42691   1.75865  -1.20031
H    -2.71301   1.86734   0.94584
H    -1.69122   3.31602   0.89072
H    -1.21438   1.94057   1.90043
H     0.19185  -1.57912   2.57214
H    -1.41987  -0.83884   2.33967
H     0.02253   0.19493   2.59194
