30
Generated by autodE on: 2022-10-22. E = -850.650989 Ha
C     5.05189  -0.74191  -0.18776
N     3.66339  -1.06494   0.07923
C     2.67730  -0.19638  -0.19791
O     2.87802   0.91811  -0.70991
C     1.28919  -0.60467   0.12593
C     0.98124  -1.81405   0.77417
N     0.79504  -2.82638   1.32764
N     0.38206   0.34794  -0.16642
C    -0.92275   0.51796  -0.07874
C    -1.89755  -0.53884   0.30975
O    -2.82914  -0.28327   1.08841
N    -1.74588  -1.73859  -0.27358
C    -2.52669  -2.89020   0.13805
C    -1.34073   1.90739  -0.42647
O    -0.50423   2.69295  -0.90254
N    -2.62207   2.22962  -0.20113
C    -3.12430   3.56325  -0.46171
H     5.66970  -1.61387   0.05747
H     5.20076  -0.48800  -1.24851
H     5.39041   0.11425   0.41782
H     3.44295  -1.95044   0.52357
H     0.85963   1.19848  -0.54043
H    -0.98248  -1.88603  -0.92572
H    -3.60217  -2.66578   0.09343
H    -2.27657  -3.18836   1.16927
H    -2.30604  -3.72547  -0.53686
H    -3.18547   1.55920   0.32033
H    -2.69635   4.30366   0.23495
H    -4.21494   3.56088  -0.34707
H    -2.87355   3.87727  -1.48545
