30
Generated by autodE on: 2022-10-26. E = -850.650970 Ha
C     4.99547   0.76188  -0.76957
N     3.80962   0.25233  -0.10799
C     2.57884   0.52323  -0.57223
O     2.37264   1.22444  -1.57736
C     1.42284  -0.04807   0.16036
C     1.56624  -0.91800   1.25621
N     1.75052  -1.64714   2.15081
N     0.23986   0.26997  -0.40157
C    -1.04086   0.03515  -0.19253
C    -1.90023   0.55021  -1.29821
O    -1.39000   1.25199  -2.18733
N    -3.19939   0.22171  -1.26172
C    -4.11350   0.63000  -2.30887
C    -1.60130  -0.65718   1.00133
O    -2.49643  -1.50717   0.87457
N    -1.13410  -0.26576   2.19756
C    -1.48051  -0.96836   3.41885
H     5.87864   0.44250  -0.20380
H     5.07627   0.37864  -1.79923
H     4.98257   1.86201  -0.81633
H     3.92020  -0.33099   0.71512
H     0.39234   0.83815  -1.26553
H    -3.48480  -0.47362  -0.57365
H    -5.13899   0.40006  -1.99536
H    -3.90744   0.10674  -3.25791
H    -4.03012   1.71085  -2.49309
H    -0.42109   0.45424   2.24801
H    -2.57191  -1.05576   3.51905
H    -1.04839  -1.98237   3.42725
H    -1.08553  -0.40664   4.27349
