49
Generated by autodE on: 2022-10-22. E = -1365.262538 Ha. Imaginary frequency = -351.8 cm-1
C     4.83388   1.51429  -0.23077
N     3.63109   1.13872   0.48860
C     2.41511   1.47463   0.03492
O     2.22094   2.23031  -0.92479
C     1.23333   0.85812   0.72571
C     1.41621   0.22112   1.97956
N     1.65431  -0.32391   2.98242
N     0.05140   1.36805   0.29620
C    -1.13834   0.68558   0.20049
C    -2.08407   1.42967  -0.71940
O    -1.63126   2.27882  -1.49650
N    -3.38631   1.11791  -0.62495
C    -4.35831   1.57459  -1.59610
C    -1.74975   0.03601   1.41412
O    -2.59517  -0.86090   1.29051
N    -1.38044   0.54290   2.60372
C    -1.71242  -0.07314   3.87176
C    -0.39964  -0.95162  -1.00093
O    -0.08724  -0.18921  -2.08728
C     0.21723  -0.87918  -3.31546
O    -1.36538  -1.89220  -1.12553
C    -2.54468  -1.64181  -1.89908
C     0.72789  -1.38013  -0.21188
C     2.02732  -1.37743  -0.78437
N     3.09571  -1.40911  -1.25518
O     0.44270  -2.18373   0.84193
C     1.43509  -3.11479   1.28359
H     5.70681   1.26646   0.38513
H     4.90898   0.97789  -1.19041
H     4.83542   2.59424  -0.43451
H     3.70474   0.42089   1.20312
H     0.18829   2.01096  -0.49887
H    -3.62367   0.32028  -0.03737
H    -5.36344   1.51767  -1.15883
H    -4.33626   0.95406  -2.50946
H    -4.14858   2.61433  -1.87823
H    -0.73235   1.32279   2.62052
H    -2.53345  -0.78374   3.72220
H    -0.84019  -0.61168   4.27862
H    -2.02480   0.69173   4.59668
H     0.76651  -1.81229  -3.12400
H    -0.70381  -1.10285  -3.87335
H     0.84512  -0.19667  -3.90157
H    -3.41496  -1.63902  -1.22941
H    -2.64213  -2.46632  -2.61948
H    -2.48652  -0.69337  -2.44540
H     2.38408  -2.60989   1.51386
H     1.03497  -3.57414   2.19518
H     1.59940  -3.88774   0.51601
