55
Generated by autodE on: 2022-06-24. E = -1211.792008 Ha
C    -2.42083  -0.17992   2.48925
C    -2.82337  -0.27932   1.04945
O    -3.94366  -0.64143   0.72180
C    -1.81407   0.03689  -0.06965
C    -2.48352   1.00120  -1.10847
C    -3.61197   1.89604  -0.67005
O    -2.02890   1.10509  -2.23484
N    -0.56937   0.65225   0.38123
C    -0.55251   2.05747   0.73780
C     0.64969   0.04180  -0.20815
C     1.43490  -0.71275   0.88802
C     1.19381  -0.44834   2.24283
C     1.90746  -1.10784   3.24788
C     2.88388  -2.05066   2.91699
C     3.15229  -2.30644   1.56953
C     2.44291  -1.63518   0.57000
C     1.56449   1.09640  -0.87087
C     2.81366   1.43563  -0.32851
C     3.61546   2.42072  -0.91482
C     3.18180   3.09608  -2.05664
C     1.93152   2.78210  -2.59854
C     1.13388   1.79858  -2.01097
C     0.01300  -0.91062  -1.27252
C     0.89806  -1.92707  -1.92499
O     0.63899  -3.10154  -2.10426
C    -1.35026  -1.34495  -0.70189
C    -1.20673  -2.44088   0.37332
C    -2.30504  -1.86888  -1.78113
H    -3.25184  -0.51913   3.12099
H    -1.52329  -0.78065   2.68629
H    -2.16577   0.86088   2.74010
H    -3.65681   2.76626  -1.33799
H    -3.50827   2.21616   0.37616
H    -4.55703   1.33568  -0.74333
H     0.37608   2.29226   1.27606
H    -1.38866   2.28734   1.41326
H    -0.61609   2.74748  -0.12577
H     0.42798   0.27478   2.51383
H     1.69350  -0.88367   4.29581
H     3.43641  -2.57499   3.70020
H     3.92355  -3.02798   1.28958
H     2.71705  -1.82620  -0.46705
H     3.17537   0.93239   0.56692
H     4.58504   2.65804  -0.47030
H     3.80787   3.86360  -2.51778
H     1.56913   3.30892  -3.48463
H     0.15319   1.59600  -2.43993
H    -0.21874  -0.25927  -2.12926
H     1.83367  -1.49176  -2.34916
H    -0.70229  -3.30856  -0.06952
H    -0.61868  -2.11954   1.23893
H    -2.19411  -2.77248   0.72603
H    -3.32471  -1.94564  -1.37691
H    -2.33074  -1.22267  -2.66680
H    -1.98745  -2.87156  -2.09791
