41
Generated by autodE on: 2022-07-27. E = -941.099933 Ha
C    -2.47327   1.68400   2.11048
C    -2.87649   0.61387   1.10505
O    -3.98828   0.06682   1.27038
C    -1.96881   0.26910   0.05639
C    -2.12654  -0.77718  -0.91864
C    -3.38960  -1.60990  -0.91799
O    -1.24244  -1.03088  -1.76603
N    -0.75938   1.03276  -0.12403
C    -0.93639   2.38278  -0.67627
C     0.41005   0.43770  -0.06942
C     0.58354  -0.83114   0.66366
C     0.06276  -1.00188   1.95883
C     0.28121  -2.19484   2.64503
C     1.00052  -3.23336   2.04098
C     1.52283  -3.06681   0.75502
C     1.32906  -1.86514   0.07275
C     1.60167   1.00428  -0.72960
C     2.79931   1.14283  -0.00658
C     3.93795   1.64505  -0.63588
C     3.90006   1.97339  -1.99542
C     2.71928   1.80325  -2.72642
C     1.56920   1.32789  -2.09769
H    -2.69713   1.30133   3.11780
H    -1.41995   1.98814   2.06917
H    -3.10374   2.57535   1.95677
H    -3.33318  -2.32205  -1.75287
H    -4.28841  -0.98482  -1.01131
H    -3.49046  -2.15813   0.03109
H    -1.22601   2.31291  -1.73409
H    -1.74961   2.87175  -0.12841
H    -0.01825   2.97121  -0.57360
H    -0.48700  -0.19183   2.43652
H    -0.11029  -2.31489   3.65742
H     1.16072  -4.17075   2.57863
H     2.08767  -3.87327   0.28263
H     1.73551  -1.72976  -0.93051
H     2.82714   0.86997   1.04985
H     4.86115   1.77156  -0.06651
H     4.79693   2.35388  -2.48953
H     2.69492   2.03822  -3.79260
H     0.65276   1.17105  -2.66745
