41
Generated by autodE on: 2022-06-24. E = -941.099963 Ha
C    -2.35171  -2.58180  -1.65371
C    -1.52255  -1.35383  -1.34866
O    -0.50919  -1.12767  -2.04572
C    -1.91062  -0.48977  -0.26537
C    -3.00722  -0.67121   0.63336
C    -3.17739   0.29976   1.79412
O    -3.83616  -1.60294   0.54372
N    -1.07989   0.68292  -0.15059
C    -1.69608   1.94540  -0.58184
C     0.21230   0.56042   0.05036
C     0.77641  -0.65384   0.67096
C     1.94453  -1.21699   0.12941
C     2.50896  -2.35371   0.70937
C     1.92985  -2.91834   1.84941
C     0.78212  -2.34403   2.40949
C     0.19944  -1.22380   1.82038
C     1.15910   1.62618  -0.33115
C     2.10674   2.08425   0.60065
C     3.02636   3.06618   0.23322
C     3.03227   3.56710  -1.07308
C     2.11335   3.08778  -2.01297
C     1.17304   2.12617  -1.64545
H    -1.88993  -3.10775  -2.50073
H    -2.39922  -3.24798  -0.77953
H    -3.39035  -2.31618  -1.89764
H    -2.31507   0.95044   1.98562
H    -4.06068   0.93236   1.60601
H    -3.39051  -0.29014   2.69832
H    -1.79926   1.95079  -1.67590
H    -1.09952   2.80335  -0.25343
H    -2.69785   2.00476  -0.14207
H     2.39455  -0.77268  -0.75946
H     3.40649  -2.79630   0.27221
H     2.37725  -3.80265   2.30900
H     0.33938  -2.77102   3.31185
H    -0.68645  -0.77454   2.26735
H     2.10756   1.67850   1.61385
H     3.74738   3.43526   0.96562
H     3.76211   4.32654  -1.36260
H     2.13159   3.46188  -3.03876
H     0.47014   1.73263  -2.38042
