28
Generated by autodE on: 2022-10-21. E = -819.874164 Ha
C     5.08368  -0.04759  -0.13290
O     3.76249   0.38677  -0.51133
C     2.83610  -0.55727  -0.61608
O     3.00097  -1.74984  -0.44937
C     1.55149  -0.01495  -1.05361
N     0.50713   0.23889  -0.52034
C    -0.67765   0.45528  -0.03898
C    -0.99940   1.85101   0.33668
O    -2.02965   2.20778   0.87909
O    -0.00902   2.69399   0.01271
C    -0.20606   4.07373   0.34848
C    -1.58915  -0.69269   0.13426
C    -2.97937  -0.52651   0.29029
C    -3.81114  -1.63942   0.42632
C    -3.28114  -2.93261   0.40675
C    -1.90195  -3.10715   0.24884
C    -1.06303  -2.00201   0.11709
H     5.06097  -0.51465   0.86167
H     5.69930   0.85831  -0.11481
H     5.47351  -0.76213  -0.87139
H     0.69870   4.59599   0.01675
H    -0.33676   4.19213   1.43397
H    -1.08842   4.47488  -0.17109
H    -3.40665   0.47367   0.29900
H    -4.88717  -1.49056   0.54372
H    -3.93727  -3.79920   0.51500
H    -1.47336  -4.11193   0.23571
H     0.01261  -2.15641   0.00936
