20
Generated by autodE on: 2022-10-21. E = -461.427436 Ha
C     2.86031   0.00306   0.71130
O     1.79498  -0.86865   0.34936
C     0.63325  -0.31347  -0.04980
C     0.14923   0.93363  -0.20842
C     0.63228   2.32579   0.02587
C    -1.33589   0.66340  -0.58719
C    -2.05275   0.10427   0.66309
C    -1.54763  -1.12319   0.82462
C    -0.53968  -1.27867  -0.33730
O    -1.21349  -0.54343  -1.37127
H     3.70616  -0.63549   0.99762
H     2.57727   0.63958   1.56519
H     3.15551   0.63942  -0.13869
H     1.69539   2.38046   0.28894
H     0.47093   2.95422  -0.86767
H     0.05873   2.79927   0.84437
H    -1.84073   1.46529  -1.13943
H    -2.76016   0.65363   1.28408
H    -1.72136  -1.85577   1.61217
H    -0.26222  -2.29370  -0.64395
