48
Generated by autodE on: 2022-10-21. E = -1281.305520 Ha. Imaginary frequency = -255.4 cm-1
C    -3.57848   3.67318   0.11268
O    -2.37434   2.90791  -0.08714
C    -2.14035   1.92661   0.78140
O    -2.83183   1.65021   1.74205
C    -0.99197   1.10591   0.38699
N     0.20453   1.17385   0.57998
C     1.35945   0.54266   0.43787
C     1.79159  -0.28908   1.57564
O     2.73414  -1.06716   1.56503
O     1.00931  -0.11018   2.65167
C     1.28347  -0.92232   3.79821
C     2.19130   0.85493  -0.73103
C     3.53389   0.43940  -0.83912
C     4.26720   0.70938  -1.99580
C     3.68558   1.39728  -3.06425
C     2.35513   1.82128  -2.96432
C     1.61669   1.55715  -1.81343
C    -0.03603  -1.62784  -0.37974
C     1.00464  -2.04118  -1.36051
C    -0.37842  -2.47710   0.85611
C    -1.28552  -3.62852   0.35281
C    -2.45046  -3.04489   0.05091
C    -2.24001  -1.54946   0.38371
O    -1.36000  -1.64441   1.50912
C    -1.23711  -1.01008  -0.67103
O    -1.57189  -0.66288  -1.93868
C    -2.79361   0.03932  -2.13874
H    -4.45554   3.01154   0.07608
H    -3.54347   4.19280   1.08021
H    -3.60979   4.39725  -0.70882
H     0.54958  -0.62613   4.55666
H     1.16728  -1.98929   3.56007
H     2.30349  -0.74016   4.16667
H     3.99656  -0.10321  -0.01819
H     5.30609   0.37712  -2.05952
H     4.26382   1.60540  -3.96733
H     1.88825   2.36241  -3.79058
H     0.58069   1.89358  -1.75499
H     0.74627  -3.03221  -1.78419
H     1.07994  -1.33132  -2.19560
H     1.99741  -2.13477  -0.89344
H     0.44442  -2.75136   1.52468
H    -0.97623  -4.66634   0.23157
H    -3.35482  -3.47232  -0.38066
H    -3.12546  -0.94592   0.60515
H    -3.65036  -0.50429  -1.71000
H    -2.74564   1.04916  -1.70310
H    -2.93134   0.12459  -3.22449
