33
Generated by autodE on: 2022-06-17. E = -785.450094 Ha
C     2.38114  -2.40461  -0.90510
O     1.68022  -1.15511  -0.79525
C     0.68994  -1.08922   0.09353
O     0.37096  -2.00344   0.82033
C    -0.02744   0.26459   0.02836
C     1.01451   1.34396  -0.28121
O     1.00334   2.05955  -1.25962
O     1.94371   1.40582   0.67060
C     2.99932   2.36219   0.48642
N    -0.65249   0.54048   1.33001
C    -1.91808   0.35596   1.22827
C    -2.84686   0.52229   2.38242
C    -2.42106  -0.06559  -0.13810
C    -2.91702  -1.51811  -0.14080
C    -1.18461   0.24060  -1.01922
C    -0.97230  -0.63091  -2.24951
H     1.68559  -3.20494  -1.19484
H     3.13858  -2.25725  -1.68292
H     2.85897  -2.65818   0.05160
H     2.58902   3.38061   0.43200
H     3.65333   2.26189   1.36002
H     3.55671   2.14064  -0.43516
H    -2.31034   0.84927   3.28286
H    -3.36041  -0.42973   2.59489
H    -3.63130   1.25571   2.13287
H    -3.26532   0.58028  -0.42956
H    -3.77066  -1.63377   0.54418
H    -3.25579  -1.81101  -1.14544
H    -2.12695  -2.21376   0.17621
H    -1.27653   1.28272  -1.35499
H    -0.08135  -0.30369  -2.80494
H    -0.84346  -1.69433  -1.99717
H    -1.83847  -0.55123  -2.92434
