33
Generated by autodE on: 2022-06-17. E = -785.360705 Ha. Imaginary frequency = -408.6 cm-1
C     1.21492  -3.32480  -0.29698
O     0.65533  -2.14627   0.28838
C     1.25858  -0.97504  -0.02893
O     2.22977  -0.93019  -0.77104
C     0.57241   0.15706   0.57167
C     0.95637   1.55732   0.47240
O     0.39597   2.45793   1.08811
O     1.95803   1.79358  -0.39552
C     2.32556   3.16414  -0.57842
N    -0.46060  -0.09786   1.40797
C    -1.65848  -0.18379   1.43121
C    -2.77302  -0.44968   2.34312
C    -2.36325   0.11452  -0.60816
C    -3.04317  -1.21826  -0.83655
C    -1.26403   0.51171  -1.34301
C    -0.59486  -0.31868  -2.39315
H     0.60275  -4.16075   0.06236
H     2.25993  -3.46156   0.01868
H     1.17370  -3.27391  -1.39502
H     3.14476   3.16101  -1.30759
H     1.47832   3.74842  -0.96730
H     2.66636   3.60941   0.36798
H    -2.45432  -0.31526   3.38741
H    -3.61800   0.21467   2.11384
H    -3.10900  -1.48811   2.19569
H    -2.98086   0.91848  -0.19200
H    -2.33361  -2.05647  -0.75596
H    -3.85299  -1.38856  -0.11334
H    -3.48876  -1.26331  -1.84574
H    -0.99105   1.57016  -1.30809
H     0.45018  -0.01513  -2.54633
H    -0.61558  -1.39221  -2.15534
H    -1.11613  -0.19387  -3.36185
