33
Generated by autodE on: 2022-05-30. E = -3501.303372 Ha
C     4.35503   1.11076   0.16630
N     3.11136   0.42266   0.46935
C     2.17299   0.99356   1.22001
O     2.25240   2.07776   1.78696
C     0.83794   0.20798   1.33332
C     0.43229   0.23274   2.74984
N     0.15801   0.22303   3.87499
O     1.02000  -1.12881   0.89526
N    -0.29141  -1.53622   0.50977
C    -0.41445  -2.84028   0.28574
N    -0.56538  -3.98373   0.12046
C    -0.88869  -0.50733  -0.30258
Br   -0.39234  -0.77943  -2.21529
C    -2.40177  -0.38389  -0.05598
C    -2.96122   0.81273  -0.85198
C    -2.42372   2.04895  -0.07251
C    -1.55162   1.42168   1.03454
C    -2.38959   0.17442   1.38119
C    -0.27947   0.79994   0.36019
C     0.34163   1.71709  -0.59067
N     0.83996   2.47994  -1.30688
H     4.82859   1.47275   1.08981
H     4.17022   1.97392  -0.49282
H     5.03147   0.41086  -0.33732
H     2.92069  -0.48127   0.04629
H    -2.92193  -1.33661  -0.21565
H    -2.64829   0.80008  -1.90366
H    -4.05800   0.77125  -0.83245
H    -3.24268   2.60204   0.40639
H    -1.87588   2.75746  -0.70683
H    -1.28461   2.10217   1.85082
H    -3.39663   0.45450   1.71813
H    -1.94936  -0.50337   2.11989
