15
Generated by autodE on: 2022-05-30. E = -562.480684 Ha
C    -3.74037   0.63161   0.00326
N    -2.29258   0.72351   0.04891
C    -1.52161  -0.36335  -0.04553
O    -1.91512  -1.52434  -0.15714
C    -0.03509  -0.12494  -0.00244
C     0.81209  -1.26553  -0.04284
N     1.42121  -2.25597  -0.07660
O     0.36569   1.09407   0.07080
N     1.57823   1.66897   0.11497
C     2.62739   0.85489   0.06274
N     3.67820   0.33467   0.02599
H    -4.08087  -0.23064   0.59283
H    -4.16759   1.54989   0.42309
H    -4.10258   0.50903  -1.03061
H    -1.85524   1.63921   0.10691
