18
Generated by autodE on: 2022-05-30. E = -2938.734760 Ha
N     2.61368  -1.64193  -1.20534
C     1.72775  -1.31660  -0.52103
C     0.66318  -0.94817   0.33232
C    -0.06815   0.19226   0.30277
Br    0.12981   1.63137  -0.88320
C    -1.22094   0.04858   1.26956
C    -2.18154  -0.99763   0.60924
C    -1.36073  -2.31681   0.66751
C    -0.02809  -1.86916   1.34407
C    -0.54467  -0.82156   2.35166
H    -1.69700   0.98510   1.58000
H    -2.46118  -0.70430  -0.41217
H    -3.10227  -1.06620   1.20593
H    -1.85843  -3.07162   1.29337
H    -1.18379  -2.75887  -0.32262
H     0.59906  -2.68262   1.72600
H     0.26201  -0.29743   2.88341
H    -1.26444  -1.23773   3.07161
