46
Generated by autodE on: 2022-06-22. E = -1127.140468 Ha
C    -1.63164   1.39250  -2.47032
C    -2.20563   0.95233  -1.16000
O    -3.37732   0.64242  -1.02420
C    -1.30048   0.93661   0.08524
C    -1.92120   1.93179   1.10916
C    -2.12865   3.33815   0.63079
O    -2.19857   1.57374   2.23519
N     0.06268   1.38458  -0.18045
C     0.88511   0.39598  -0.13499
C     2.32637   0.57751  -0.40111
C     2.85748   1.87825  -0.49835
C     4.21162   2.07658  -0.75733
C     5.06276   0.97818  -0.92897
C     4.54753  -0.31750  -0.83803
C     3.19153  -0.51825  -0.57287
C     0.22938  -0.96368   0.09323
C     0.92999  -1.78822   1.17558
N     0.78958  -3.12054   1.09624
O     1.53982  -1.22803   2.09191
C     0.06075  -1.68689  -1.27331
C    -1.19582  -2.50535  -1.33467
C    -2.20392  -2.34419  -0.44979
N    -2.18859  -1.45693   0.60046
C    -3.32373  -1.33184   1.49429
C    -1.12900  -0.50133   0.70411
H    -0.72950   0.81712  -2.72377
H    -1.31805   2.44570  -2.38382
H    -2.38724   1.29050  -3.25967
H    -2.96844   3.35190  -0.08368
H    -2.36750   3.99417   1.47757
H    -1.23781   3.69723   0.09711
H     2.19217   2.73116  -0.36356
H     4.60786   3.09236  -0.82471
H     6.12503   1.13325  -1.13175
H     5.20394  -1.18011  -0.97185
H     2.81834  -1.53991  -0.51028
H     0.20078  -3.54824   0.38670
H     1.16614  -3.70058   1.84007
H     0.94479  -2.31501  -1.46247
H     0.07858  -0.93153  -2.07731
H    -1.29554  -3.25922  -2.11738
H    -3.10327  -2.96223  -0.50752
H    -3.95146  -0.45812   1.25236
H    -2.98253  -1.23163   2.53627
H    -3.94322  -2.23614   1.42196
H    -0.95715  -0.30384   1.77122
