26
Generated by autodE on: 2022-06-22. E = -669.376899 Ha
C     3.53405  -2.19452  -0.34183
C     2.12447  -1.66191  -0.28537
O     1.15917  -2.40909  -0.50222
C     1.91742  -0.25438   0.02727
N     0.60910   0.10147   0.04945
C    -0.54397   0.24153   0.02956
C    -1.94923   0.38875   0.00156
C    -2.54602   1.63845   0.26731
C    -3.93387   1.74282   0.23054
C    -4.72088   0.62349  -0.06568
C    -4.12167  -0.61422  -0.32874
C    -2.73634  -0.74442  -0.29831
C     2.90522   0.76789   0.30470
C     2.38416   2.16043   0.59900
O     4.12249   0.54037   0.30754
H     4.04976  -2.04260   0.61783
H     4.12422  -1.65992  -1.10092
H     3.49214  -3.26542  -0.58255
H    -1.92087   2.50229   0.49706
H    -4.40608   2.70579   0.43482
H    -5.80864   0.71661  -0.09175
H    -4.73866  -1.48489  -0.55950
H    -2.24904  -1.69961  -0.50018
H     1.72736   2.15434   1.48389
H     3.23395   2.83077   0.78086
H     1.78887   2.54428  -0.24515
