46
Generated by autodE on: 2022-06-22. E = -1127.091598 Ha. Imaginary frequency = -323.8 cm-1
C    -1.60178   1.43181  -2.77466
C    -2.21315   1.81745  -1.44155
O    -3.40152   2.18320  -1.39413
C    -1.36056   1.69036  -0.28019
C    -1.66942   2.09517   1.06306
C    -3.05302   2.60360   1.39474
O    -0.81221   2.04759   1.97989
N    -0.05705   1.28319  -0.51543
C     0.72970   0.39983  -0.26229
C     2.15159   0.17230  -0.48854
C     3.08710   0.47406   0.51509
C     4.44314   0.24684   0.27978
C     4.86763  -0.28314  -0.94325
C     3.93310  -0.58827  -1.93857
C     2.57348  -0.37074  -1.71391
C     0.02527  -1.32744   0.74429
C     0.83907  -1.22753   2.00377
N     0.53903  -0.23603   2.86679
O     1.74414  -2.04715   2.21425
C     0.44263  -2.45984  -0.18313
C    -0.47504  -2.53013  -1.36997
C    -1.73779  -2.09033  -1.28618
N    -2.22338  -1.50152  -0.09857
C    -3.63291  -1.12625  -0.04446
C    -1.36528  -1.08399   0.83406
H    -0.66367   1.97763  -2.95969
H    -2.32134   1.64307  -3.57657
H    -1.35552   0.35751  -2.78163
H    -3.81222   1.82909   1.20885
H    -3.06712   2.88665   2.45615
H    -3.32778   3.46617   0.77068
H     2.74644   0.88917   1.46413
H     5.17235   0.48671   1.05652
H     5.93064  -0.46090  -1.12074
H     4.26326  -1.00330  -2.89324
H     1.83371  -0.61541  -2.47856
H     0.00410   0.59008   2.56406
H     1.14798  -0.13883   3.67388
H     0.42462  -3.42037   0.36890
H     1.48779  -2.33545  -0.49721
H    -0.12986  -2.98933  -2.29800
H    -2.46552  -2.15687  -2.09495
H    -4.25632  -1.99603  -0.29262
H    -3.83492  -0.32064  -0.76446
H    -3.87886  -0.78008   0.96576
H    -1.80119  -0.56265   1.68607
