25
Generated by autodE on: 2022-06-16. E = -498.266582 Ha
C     3.62427  -0.05524  -0.04748
N     2.24220  -0.23925   0.34112
C     1.30567   0.72110   0.27041
O     1.52067   1.86838  -0.14096
C    -0.09203   0.33490   0.75848
N    -0.19893  -1.09419   1.10193
C    -0.88930  -1.66313   0.18829
C    -1.39322  -0.78380  -0.92649
C    -2.78336  -1.14359  -1.44392
C    -1.18652   0.62451  -0.30553
C    -2.44035   1.21117   0.33918
H     3.77841   0.99426  -0.32544
H     4.30166  -0.30597   0.78349
H     3.88517  -0.69055  -0.90913
H     1.94260  -1.14043   0.70231
H    -0.24899   0.94384   1.66373
H    -1.07212  -2.74596   0.21093
H    -0.67352  -0.90972  -1.75850
H    -3.10280  -0.44754  -2.23462
H    -3.53730  -1.12052  -0.64281
H    -2.78057  -2.15844  -1.87207
H    -0.80809   1.33169  -1.05595
H    -2.20341   2.17595   0.81475
H    -2.84504   0.54283   1.11657
H    -3.23369   1.38858  -0.40218
