13
Generated by autodE on: 2022-06-16. E = -340.861679 Ha
C     2.99649   0.27648   0.19181
N     1.93767   0.14506  -0.37995
C     0.77089  -0.11401  -0.85837
C    -0.39534  -0.02776   0.04087
O    -0.29029   0.27025   1.24041
N    -1.58381  -0.30262  -0.54121
C    -2.82131  -0.26961   0.20979
H     3.51983   1.24048   0.28398
H     0.67901  -0.39649  -1.91045
H    -1.60606  -0.55142  -1.52446
H    -2.80950  -0.99537   1.03937
H    -3.65195  -0.51833  -0.46185
H    -3.00326   0.72833   0.64067
