25
Generated by autodE on: 2022-06-16. E = -498.150611 Ha. Imaginary frequency = -406.9 cm-1
C     3.38401   0.40444  -0.32083
N     2.18215  -0.17402   0.24293
C     1.25431   0.59230   0.86668
O     1.44379   1.80124   1.10045
C    -0.01603  -0.03649   1.23853
N    -0.27917  -1.30583   0.99721
C    -0.72884  -2.09071   0.18676
C    -1.50475  -0.63935  -1.45030
C    -2.94161  -1.10148  -1.41215
C    -1.09276   0.59457  -1.00073
C    -1.99518   1.62785  -0.38041
H     3.89740   1.03141   0.42299
H     4.06142  -0.40336  -0.62560
H     3.17051   1.03423  -1.20232
H     1.94571  -1.12966  -0.00011
H    -0.64196   0.49419   1.95801
H    -0.74885  -3.18745   0.20251
H    -0.84913  -1.15858  -2.15667
H    -3.53620  -0.61156  -2.20566
H    -3.42736  -0.86106  -0.45362
H    -3.02265  -2.18829  -1.56554
H    -0.11397   0.95065  -1.33396
H    -1.41409   2.36119   0.19935
H    -2.74507   1.18141   0.29098
H    -2.55328   2.19156  -1.15293
