61
Generated by autodE on: 2022-06-27. E = -1526.511156 Ha
C    -1.42905   2.67377   3.42603
N    -1.17824   2.66462   1.99623
C    -0.36087   1.75544   1.44297
O     0.32632   1.00352   2.14698
C    -0.32434   1.66716  -0.11064
C    -0.27554   3.06837  -0.72492
N    -1.47446   0.91962  -0.62295
C    -2.81810   1.45935  -0.49208
C    -1.30321  -0.52400  -0.54713
C    -1.76310  -1.16105  -1.89684
O    -1.95506  -2.38078  -2.02606
N    -1.90455  -0.31221  -2.91692
C    -2.22291  -0.76308  -4.25587
C    -2.13275  -1.08952   0.66004
O    -2.22493  -0.41670   1.69088
N    -2.78289  -2.24809   0.49872
C    -3.46878  -2.87694   1.60645
C     0.27925  -0.71881  -0.39015
C     0.85816  -1.71923  -1.42799
C     0.71935  -1.38930   0.91171
O     0.04375  -2.19145   1.52470
C     2.17279  -1.24394   1.27325
O     2.60302  -2.30513   1.95851
C     3.98615  -2.49234   2.27942
C     2.83564  -0.09603   0.96552
O     4.09140   0.17503   1.42561
C     5.09785   0.33571   0.42229
C     2.11758   1.00867   0.30370
O     2.59372   2.13990   0.33692
C     0.86640   0.73623  -0.53701
C     1.32768   1.02706  -1.98066
H    -0.49242   2.80925   3.98705
H    -1.88873   1.72665   3.75231
H    -2.10807   3.50187   3.66285
H    -1.76622   3.23781   1.40349
H    -1.12267   3.68791  -0.40243
H    -0.32161   3.00742  -1.81919
H     0.64957   3.57728  -0.42796
H    -3.16274   1.55919   0.54991
H    -2.88298   2.44082  -0.98301
H    -3.52375   0.79225  -1.00650
H    -1.68452   0.66204  -2.72293
H    -1.41653  -1.39216  -4.66748
H    -3.15028  -1.35581  -4.25817
H    -2.35684   0.11178  -4.90365
H    -2.59167  -2.76039  -0.36310
H    -4.00140  -3.76448   1.24221
H    -2.75970  -3.18659   2.39378
H    -4.19633  -2.18829   2.06139
H     0.62412  -1.42245  -2.45557
H     1.95020  -1.77539  -1.33400
H     0.44075  -2.71815  -1.25542
H     4.05297  -3.50675   2.69285
H     4.32289  -1.76203   3.02583
H     4.60928  -2.42061   1.37591
H     6.02502   0.60289   0.94628
H     4.83662   1.13634  -0.28612
H     5.24754  -0.60790  -0.12859
H     0.51366   0.88914  -2.70134
H     2.15264   0.35855  -2.25938
H     1.70094   2.05360  -2.05955
