35
Generated by autodE on: 2022-07-27. E = -837.007253 Ha
C    -1.80295   1.04794   1.47752
N    -0.50671   1.17248   2.11258
C     0.68283   1.47169   1.56621
O     1.72137   1.55578   2.23105
C     0.77303   1.84249   0.10270
C     1.46970   3.12621  -0.19474
N     0.36804   1.04731  -0.85399
C     0.48721   1.50779  -2.25266
C    -0.02442  -0.29497  -0.61664
C    -1.26430  -0.67569  -1.26207
O    -2.03523   0.18574  -1.74952
N    -1.60865  -1.99997  -1.33057
C    -2.79564  -2.41711  -2.04722
C     0.90101  -1.10181   0.16512
O     2.08467  -0.76043   0.37649
N     0.44404  -2.29522   0.66375
C     1.28988  -3.10348   1.51945
H    -2.56084   1.53934   2.10474
H    -2.08461  -0.00851   1.35002
H    -1.80553   1.52787   0.49393
H    -0.45271   0.95664   3.10652
H     0.83643   3.77895  -0.81547
H     2.39869   2.94062  -0.76088
H     1.72258   3.64857   0.73383
H    -0.05089   2.45301  -2.39596
H     1.55243   1.65613  -2.48129
H     0.07781   0.74200  -2.91317
H    -0.88047  -2.69020  -1.18498
H    -2.72294  -2.23695  -3.13493
H    -2.95154  -3.49147  -1.88209
H    -3.67976  -1.87566  -1.68026
H    -0.55891  -2.40917   0.76291
H     1.54549  -2.59199   2.46446
H     0.76446  -4.03786   1.75695
H     2.23237  -3.35304   1.01090
