26
Generated by autodE on: 2022-10-07. E = -834.970035 Ha
C     3.25918  -2.54704  -1.23033
O     2.53798  -1.38645  -0.78460
C     1.23333  -1.53141  -0.59859
O     0.61861  -2.56849  -0.79305
C     0.55134  -0.29292  -0.15884
N    -0.76472  -0.42303  -0.09855
C    -1.81446   0.32342   0.27693
C    -1.71875   1.58621   0.90100
N    -1.72852   2.60727   1.46413
C    -3.11682  -0.35535   0.09299
C    -4.35538   0.36974   0.52064
O    -3.12833  -1.48390  -0.39432
C     1.20386   1.02479   0.02989
O     0.69940   2.06146  -0.35886
O     2.37489   0.94570   0.64920
C     3.10099   2.17661   0.81015
H     3.15915  -3.36176  -0.49918
H     4.30573  -2.23376  -1.31287
H     2.87989  -2.87905  -2.20727
H    -1.09490  -1.36356  -0.40447
H    -5.23888  -0.23938   0.29435
H    -4.42453   1.34108   0.00505
H    -4.31321   0.58077   1.60162
H     3.32216   2.61900  -0.17162
H     2.51600   2.88712   1.41114
H     4.02909   1.91017   1.32776
