26
Generated by autodE on: 2022-10-13. E = -834.962582 Ha
C    -1.49276  -3.12444   1.40607
O    -1.40244  -1.71144   1.15484
C    -0.67908  -1.34486   0.10882
O    -0.13892  -2.10238  -0.67043
C    -0.68829   0.13235  -0.10900
N     0.40133   0.80497  -0.43485
C     1.72441   0.50902  -0.31474
C     2.61982   1.35886  -1.00846
N     3.37139   2.04270  -1.58156
C     2.22115  -0.47233   0.64726
C     3.71266  -0.64417   0.74467
O     1.44319  -1.08636   1.37921
C    -1.98695   0.82687  -0.24660
O    -3.06319   0.27371  -0.13473
O    -1.82692   2.12311  -0.52805
C    -3.01712   2.89333  -0.76444
H    -1.95216  -3.63672   0.54898
H    -2.12122  -3.23095   2.29706
H    -0.49060  -3.53638   1.59110
H     0.19579   1.73468  -0.82538
H     4.19397   0.29956   1.04719
H     3.93815  -1.42345   1.48310
H     4.13014  -0.92496  -0.23543
H    -2.67692   3.91262  -0.97717
H    -3.56933   2.48494  -1.62270
H    -3.65756   2.88089   0.12860
