10
Generated by autodE on: 2022-10-07. E = -455.051697 Ha
O     2.22527   1.06398  -0.67231
C     1.97395   0.03147   0.00795
O     2.82992  -0.73699   0.52886
C     0.52388  -0.34498   0.23571
C    -0.52390   0.34547  -0.23483
C    -1.97399  -0.03132  -0.00773
O    -2.22532  -1.06310   0.67362
O    -2.82983   0.73561  -0.53106
H     0.34492  -1.24779   0.82976
H    -0.34491   1.24831  -0.82882
