44
Generated by autodE on: 2022-06-04. E = -3810.869010 Ha
C     3.88162  -2.34339   1.54298
N     2.89298  -1.68693   0.71123
C     2.47362  -0.44151   0.94968
O     2.94839   0.30855   1.80537
C     1.31568   0.04253   0.04086
C     1.57634   1.55660  -0.15239
O     0.94278   2.45729   0.34879
O     2.60751   1.73271  -0.96992
C     2.95513   3.08866  -1.29959
N     1.31571  -0.67995  -1.22191
C     0.00732  -0.55717  -1.84625
C    -0.17822  -1.57590  -2.97177
C    -0.12746   0.80585  -2.44441
N    -0.08051   1.85404  -2.94060
C    -0.96349  -0.71435  -0.62715
Br   -2.66993   0.15384  -1.07477
C    -1.28066  -2.20827  -0.24399
C    -2.27077  -2.17556   0.91426
C    -1.55013  -1.80546   1.97801
C    -0.13507  -1.62398   1.45565
O    -0.06915  -2.58951   0.40726
C    -0.11648  -0.25910   0.63203
C    -0.63823   0.83462   1.56220
O    -1.63902   1.49494   1.43645
O     0.14866   0.87691   2.64355
C    -0.14896   1.88086   3.62140
H     4.70295  -1.64975   1.76929
H     4.28330  -3.21296   1.00779
H     3.44513  -2.68414   2.49704
H     2.36218  -2.22018   0.02645
H     3.20386   3.64888  -0.38762
H     3.82637   3.02325  -1.96038
H     2.11495   3.57148  -1.81812
H     2.07763  -0.39416  -1.83701
H     0.51655  -1.34602  -3.79188
H     0.04341  -2.58465  -2.60217
H    -1.20444  -1.53914  -3.36343
H    -1.51521  -2.85666  -1.09162
H    -3.34200  -2.35005   0.83411
H    -1.87616  -1.58666   2.99387
H     0.68124  -1.73532   2.17256
H    -1.15564   1.73003   4.03663
H    -0.08284   2.88024   3.16739
H     0.60791   1.76995   4.40619
