19
Generated by autodE on: 2022-06-04. E = -3109.086198 Ha
C    -3.86277  -1.53763   0.12795
O    -2.45586  -1.54110   0.39952
C    -1.78881  -0.40131   0.14137
O    -2.31994   0.60071  -0.30006
C    -0.36790  -0.54584   0.45914
C     0.67177   0.25992   0.17300
Br    0.74651   1.88908  -0.72145
C     1.93846  -0.50742   0.62648
C     2.09637  -1.69726  -0.34833
C     1.07677  -2.50941  -0.05703
C     0.30989  -1.79722   1.07949
O     1.40212  -1.16868   1.77874
H    -4.05015  -1.33890  -0.93755
H    -4.22566  -2.53658   0.39618
H    -4.37091  -0.77338   0.73424
H     2.82296   0.09639   0.85345
H     2.85934  -1.77363  -1.12176
H     0.77142  -3.44420  -0.52536
H    -0.31333  -2.40659   1.73992
