44
Generated by autodE on: 2022-06-04. E = -3810.810835 Ha. Imaginary frequency = -296.0 cm-1
C     3.92443  -1.44227   2.53957
N     3.17948  -0.56357   1.66104
C     2.68594  -0.99650   0.49543
O     2.86944  -2.14557   0.06091
C     1.82279  -0.04980  -0.28848
C     1.95630   1.40335  -0.09962
O     2.29282   1.92566   0.95521
O     1.68760   2.09120  -1.19963
C     1.60834   3.52047  -1.09742
N     1.37121  -0.63736  -1.42397
C     0.26209  -0.41986  -2.16758
C    -0.10945  -1.49547  -3.15569
C    -0.17021   0.88813  -2.56397
N    -0.63354   1.85300  -3.01935
C    -1.22840  -0.63713  -0.37959
Br   -2.78114   0.33371  -0.89233
C    -1.40516  -2.17751  -0.30820
C    -2.27778  -2.46247   0.93036
C    -1.49106  -2.18368   1.97531
C    -0.15634  -1.73091   1.36202
O    -0.10901  -2.54261   0.17221
C    -0.42118  -0.34093   0.73005
C    -0.42395   0.89868   1.50297
O    -0.74008   1.99907   1.08552
O    -0.00868   0.68144   2.76528
C     0.07884   1.82898   3.61961
H     4.82727  -1.83022   2.04265
H     3.31274  -2.30431   2.85226
H     4.22455  -0.87823   3.43083
H     2.94789   0.38924   1.93913
H     0.88120   3.80103  -0.32354
H     1.27278   3.86883  -2.08034
H     2.59504   3.93995  -0.85618
H     1.66048  -1.62738  -1.40591
H     0.42224  -1.34658  -4.10988
H     0.14738  -2.48631  -2.75656
H    -1.18757  -1.45779  -3.36479
H    -1.66642  -2.68884  -1.23916
H    -3.32290  -2.76724   0.90422
H    -1.71834  -2.18815   3.04049
H     0.73956  -1.84029   1.97678
H    -0.90924   2.29572   3.74275
H     0.78183   2.56340   3.20253
H     0.44477   1.45936   4.58451
