52
Generated by autodE on: 2022-10-22. E = -1557.072534 Ha
C    -0.72264   4.31492  -1.69723
N    -0.92589   3.07564  -0.97694
C    -0.68025   2.94888   0.33531
O    -0.34907   3.89146   1.06562
C    -0.77000   1.53457   0.90478
C     0.62108   0.85852   0.96703
C     1.63515   1.34292  -0.11425
O     1.17509   0.67240  -1.28717
C     1.30604  -0.65607  -0.76401
C     2.75265  -0.65834  -0.26013
C     3.53247  -1.90762  -0.11270
F     4.81531  -1.80082  -0.52441
F     2.97768  -2.90620  -0.83256
F     3.59211  -2.36325   1.16806
C     2.93873   0.61127   0.18175
O     3.87435   1.27608   0.83993
C     5.03086   0.58405   1.32800
C     0.39387  -0.61225   0.50166
C    -1.14377  -0.74333   0.26498
C    -1.71473  -1.40820   1.55039
O    -1.78684  -0.73383   2.58580
N    -2.06921  -2.69592   1.49720
C    -2.51899  -3.40779   2.67651
C    -1.39003  -1.54992  -1.02642
O    -1.22330  -2.78136  -1.06562
N    -1.71329  -0.83403  -2.10415
C    -1.83033  -1.42311  -3.42239
N    -1.61713   0.63433   0.13142
C    -3.04819   0.85574   0.30104
H    -1.29366   4.29146  -2.63461
H     0.34223   4.47843  -1.93781
H    -1.06907   5.16192  -1.08920
H    -1.08029   2.21189  -1.48815
H    -1.14489   1.65554   1.93460
H     1.04769   0.94364   1.97186
H     1.73116   2.42414  -0.25457
H     1.06534  -1.41318  -1.51477
H     5.60631   1.31875   1.90316
H     4.72997  -0.24824   1.98063
H     5.63417   0.20834   0.49035
H     0.73114  -1.36219   1.22467
H    -1.86865  -3.18827   0.62481
H    -1.71749  -3.49555   3.42900
H    -2.83954  -4.41528   2.38413
H    -3.36673  -2.88834   3.14808
H    -1.76120   0.17280  -1.97465
H    -0.84446  -1.71586  -3.82076
H    -2.46451  -2.32078  -3.38771
H    -2.28292  -0.69065  -4.10201
H    -3.61420   0.10197  -0.26394
H    -3.36301   0.80533   1.35876
H    -3.31904   1.84561  -0.09366
