20
Generated by autodE on: 2022-10-22. E = -759.291621 Ha
C     2.33703  -1.21460   1.00699
O     1.08420  -1.85076   0.72084
C     0.11777  -1.15262   0.14955
C    -0.05375   0.11232  -0.30533
C     0.78423   1.32717  -0.27170
F     1.06751   1.76632   0.98568
F     1.98652   1.17973  -0.87905
F     0.16634   2.35599  -0.89039
C    -1.55882   0.14137  -0.69503
C    -2.38740   0.03111   0.60412
C    -2.19133  -1.21919   1.03341
C    -1.25598  -1.84514  -0.02264
O    -1.71193  -1.19312  -1.21395
H     2.95775  -1.96956   1.50338
H     2.18405  -0.35602   1.67662
H     2.81904  -0.88506   0.07606
H    -1.85277   0.90569  -1.42072
H    -2.94124   0.84845   1.06497
H    -2.53117  -1.71319   1.94259
H    -1.22545  -2.93638  -0.10957
