62
Generated by autodE on: 2022-07-01. E = -2239.158926 Ha
C    -8.64810   2.40062   2.02890
O    -7.35400   3.03166   2.03317
C    -6.95522   3.57874   0.89943
O    -7.62373   3.62041  -0.11184
C    -5.58943   4.29214   1.02167
C    -4.53724   3.71095   1.98217
C    -4.56932   2.41234   2.50097
C    -3.53988   1.96016   3.33423
C    -2.46971   2.79488   3.65696
C    -2.43344   4.09543   3.14189
C    -3.45803   4.54755   2.31317
N    -6.01235   5.58657   1.53733
C    -5.72441   6.48419   0.66518
C    -6.16048   7.87284   1.00263
C    -7.45195   8.28880   0.64823
C    -7.91618   9.54685   1.03701
C    -7.10062  10.39261   1.79469
C    -5.82552   9.96622   2.17832
C    -5.35806   8.70878   1.79087
C    -5.03876   5.91677  -0.56557
C    -4.99455   4.56285  -0.36987
C    -4.58335   3.33621  -1.22069
C    -5.17026   2.11616  -0.61873
N    -5.61684   1.11637  -0.24121
C    -3.04907   2.99798  -1.21067
F    -2.29274   3.88893  -1.85113
F    -2.86174   1.81594  -1.82252
F    -2.56828   2.88515   0.02993
C    -5.10773   3.28672  -2.72479
C    -6.05900   4.39283  -3.17663
C    -5.31329   5.56027  -3.81968
C    -4.12072   6.07601  -3.01512
C    -4.42591   6.79440  -1.67523
C    -3.06787   7.33155  -1.13247
F    -2.16459   6.35186  -1.03408
F    -3.17777   7.87505   0.08940
F    -2.55945   8.27330  -1.94296
C    -5.32341   8.02255  -2.04258
F    -5.03881   8.49841  -3.26462
F    -6.61669   7.66350  -2.05402
F    -5.18348   9.06593  -1.21403
H    -8.66709   1.59405   1.28274
H    -9.42893   3.13919   1.80066
H    -8.78446   1.99510   3.03729
H    -5.38596   1.73776   2.26026
H    -3.58171   0.94233   3.72880
H    -1.66676   2.43646   4.30529
H    -1.60077   4.76020   3.38273
H    -3.40263   5.55748   1.90334
H    -8.09104   7.62497   0.06398
H    -8.92167   9.86433   0.75122
H    -7.46303  11.37802   2.09681
H    -5.19133  10.61339   2.78864
H    -4.36848   8.37523   2.10320
H    -5.60111   2.31620  -2.84415
H    -4.23565   3.25755  -3.39221
H    -6.73695   3.96044  -3.92773
H    -6.70037   4.72126  -2.34777
H    -4.89736   5.21233  -4.77931
H    -6.01484   6.36733  -4.07062
H    -3.55522   6.78323  -3.63342
H    -3.43088   5.25901  -2.81128
