30
Generated by autodE on: 2022-07-01. E = -1415.998705 Ha
N    -1.34504  -4.19307   0.88959
C    -1.16086  -3.25827   0.23061
C    -0.95959  -2.06017  -0.60199
C    -0.33057  -2.53039  -1.94318
F     0.85839  -3.10890  -1.73182
F    -1.12071  -3.42377  -2.54826
F    -0.14598  -1.50558  -2.77900
C    -0.07743  -1.08894   0.04490
C     0.33738  -0.00734   0.38450
C     0.37033   1.42813   0.64601
C     0.33578   1.67673   2.17495
F     0.43242   2.98103   2.46197
F     1.33347   1.04501   2.80644
F    -0.81368   1.23083   2.69865
C     1.64894   2.04684   0.02993
F     2.76158   1.60968   0.63385
F     1.74004   1.71514  -1.26518
F     1.63777   3.38233   0.10773
C    -0.89501   2.05469  -0.04495
C    -2.16590   1.18414  -0.07792
C    -2.28594   0.14402  -1.22719
C    -2.34694  -1.34309  -0.83126
H    -1.10339   3.00710   0.46259
H    -0.61200   2.30406  -1.07707
H    -2.31923   0.69723   0.89571
H    -2.99876   1.89509  -0.18347
H    -1.49652   0.30722  -1.97484
H    -3.23196   0.33609  -1.75521
H    -2.91188  -1.45095   0.10531
H    -2.88073  -1.92687  -1.59482
