62
Generated by autodE on: 2022-07-01. E = -2239.062257 Ha. Imaginary frequency = -249.4 cm-1
C    -9.24138   3.39267   1.18368
O    -8.01639   4.12634   1.30753
C    -6.93647   3.43872   1.71577
O    -6.96295   2.24302   1.94788
C    -5.74539   4.31240   1.85055
C    -4.47081   3.90027   2.47225
C    -4.32526   2.70722   3.20443
C    -3.08654   2.35687   3.74386
C    -1.97334   3.18384   3.56787
C    -2.11098   4.37713   2.84996
C    -3.34558   4.73427   2.31233
N    -5.98376   5.60143   1.70843
C    -6.07114   6.58120   1.01150
C    -6.67136   7.89569   1.12641
C    -7.89182   8.12316   0.46710
C    -8.49679   9.37603   0.55661
C    -7.88439  10.40398   1.28159
C    -6.66721  10.17304   1.93222
C    -6.05597   8.92159   1.86225
C    -5.11180   5.71371  -0.86896
C    -5.22951   4.47814  -0.77152
C    -5.16653   3.14734  -1.43229
C    -6.47498   2.47383  -1.32187
N    -7.50856   1.95109  -1.31875
C    -4.08741   2.24775  -0.76680
F    -2.96527   2.94723  -0.55947
F    -3.78066   1.20259  -1.54794
F    -4.49337   1.75118   0.40502
C    -4.83587   3.25655  -2.96361
C    -5.56977   4.39557  -3.68283
C    -4.66890   5.59025  -4.02457
C    -3.75244   6.13171  -2.92336
C    -4.41355   6.77486  -1.66399
C    -3.25089   7.35235  -0.81050
F    -2.33801   6.40405  -0.55761
F    -3.64619   7.83265   0.37870
F    -2.63163   8.35515  -1.45358
C    -5.34871   7.92954  -2.11933
F    -4.88318   8.53116  -3.22563
F    -6.57218   7.45944  -2.40430
F    -5.48548   8.89725  -1.20242
H    -9.99883   4.12616   0.88347
H    -9.51589   2.93794   2.14676
H    -9.14745   2.61005   0.41891
H    -5.18128   2.05024   3.33847
H    -2.99277   1.42634   4.30880
H    -1.00532   2.90244   3.98880
H    -1.25042   5.03406   2.70351
H    -3.43600   5.66454   1.75325
H    -8.35052   7.31970  -0.11137
H    -9.44862   9.55271   0.05083
H    -8.35614  11.38737   1.33969
H    -6.19023  10.97362   2.50196
H    -5.10657   8.73622   2.36573
H    -3.74766   3.38060  -3.05310
H    -5.07754   2.28410  -3.41233
H    -5.97731   4.00880  -4.62853
H    -6.44037   4.72346  -3.09584
H    -3.98762   5.27873  -4.83367
H    -5.28414   6.39657  -4.44993
H    -3.09213   6.88746  -3.37015
H    -3.10317   5.33099  -2.54866
