40
Generated by autodE on: 2022-05-31. E = -1160.587692 Ha
C    -4.39246  -2.09741  -1.06681
O    -3.26666  -1.84040  -0.20354
C    -2.12382  -1.53101  -0.78267
O    -1.89884  -1.52082  -1.96820
C    -1.04272  -1.11620   0.25519
C    -1.31553  -1.72279   1.57764
N    -1.47775  -2.17943   2.63070
N     0.30799  -1.41889  -0.17488
C     1.01245  -0.20573  -0.63064
C     1.07839  -0.17223  -2.11003
N     1.10199  -0.15880  -3.26938
C     2.40653  -0.10533  -0.00315
C     2.48118  -0.02539   1.39480
C     3.72038   0.08456   2.02423
C     4.89518   0.11146   1.26224
C     4.82156   0.02411  -0.12932
C     3.57854  -0.08255  -0.76279
C     0.07450   0.91452  -0.16714
C     0.30524   2.38638  -0.28521
C     1.64286   2.89601  -0.72533
O    -0.61995   3.13701  -0.00570
C    -1.05272   0.40656   0.35093
C    -2.26768   1.14997   0.84271
C    -2.21551   1.72463   2.22090
O    -3.25612   1.14842   0.13045
H    -4.62339  -1.19244  -1.64589
H    -4.16614  -2.93231  -1.74356
H    -5.22490  -2.35264  -0.40266
H     0.35790  -2.19441  -0.83233
H     1.56515  -0.04882   1.98915
H     3.77132   0.15057   3.11336
H     5.86583   0.19896   1.75568
H     5.73347   0.03973  -0.73031
H     3.53076  -0.14212  -1.85146
H     1.96567   2.40504  -1.65618
H     2.39725   2.65877   0.04173
H     1.58885   3.98221  -0.86924
H    -2.26706   0.87777   2.92898
H    -1.26421   2.24428   2.39933
H    -3.07103   2.39221   2.38899
