14
Generated by autodE on: 2022-05-31. E = -382.806817 Ha
C     2.67780   0.25445  -1.38364
C     2.02131   0.43308  -0.04850
O     2.59870   0.82473   0.95338
C     0.60090   0.10911   0.01513
C    -0.58503  -0.16017   0.07259
C    -2.00420  -0.48810   0.14352
C    -2.95414   0.63337  -0.14796
O    -2.34974  -1.62439   0.42638
H     3.73946   0.52615  -1.31574
H     2.16816   0.88229  -2.13303
H     2.56987  -0.79261  -1.71144
H    -3.98889   0.27534  -0.06636
H    -2.77777   1.46107   0.55856
H    -2.76277   1.02575  -1.16035
