26
Generated by autodE on: 2022-05-31. E = -777.711765 Ha
C     4.83572   1.11863  -1.09507
O     3.86846   0.29504  -0.42645
C     2.58665   0.62605  -0.58597
O     2.19263   1.57157  -1.25782
C     1.67508  -0.26493   0.12695
C     2.13654  -1.36040   0.87812
N     2.56781  -2.26213   1.48188
N     0.36450   0.05391  -0.03687
C    -0.78265  -0.42113   0.42704
C    -0.76903  -1.47074   1.39005
N    -0.81836  -2.31704   2.18736
C    -2.07138   0.12172  -0.01889
C    -2.17304   0.96327  -1.14700
C    -3.40968   1.47597  -1.53143
C    -4.56687   1.15361  -0.81294
C    -4.47790   0.30834   0.29679
C    -3.24410  -0.20515   0.69218
H     5.81467   0.69605  -0.84224
H     4.76618   2.15711  -0.74073
H     4.67808   1.08953  -2.18281
H     0.28930   0.86274  -0.67173
H    -1.29935   1.21086  -1.75436
H    -3.47088   2.12374  -2.40838
H    -5.53424   1.55447  -1.12296
H    -5.37467   0.04708   0.86249
H    -3.18829  -0.85754   1.56527
