26
Generated by autodE on: 2022-07-26. E = -777.708811 Ha
C    -4.70725  -1.60253   0.66762
O    -3.37384  -1.11434   0.87714
C    -2.66854  -0.80744  -0.21277
O    -3.08238  -0.91564  -1.35992
C    -1.32788  -0.31690   0.09854
C    -0.89874  -0.12555   1.42328
N    -0.58835   0.03361   2.53753
N    -0.60678   0.02861  -1.00099
C     0.63551   0.45145  -1.19869
C     0.94317   0.88693  -2.51902
N     1.22833   1.25252  -3.58800
C     1.70368   0.47627  -0.18902
C     2.56786   1.58566  -0.12096
C     3.61679   1.59961   0.79629
C     3.82643   0.50286   1.63988
C     2.98645  -0.61227   1.55873
C     1.92871  -0.63153   0.65064
H    -5.31707  -0.84554   0.15377
H    -4.68884  -2.52651   0.07196
H    -5.11319  -1.80257   1.66569
H    -1.19700  -0.06317  -1.84261
H     2.40505   2.43913  -0.78243
H     4.27476   2.46935   0.85252
H     4.65142   0.51418   2.35570
H     3.15825  -1.47689   2.20316
H     1.29495  -1.51630   0.57684
