40
Generated by autodE on: 2022-05-31. E = -1160.504575 Ha. Imaginary frequency = -311.2 cm-1
C    -4.30511  -2.37678   0.61294
O    -2.93327  -1.99328   0.82298
C    -2.19218  -1.80127  -0.25560
O    -2.54541  -1.98428  -1.40444
C    -0.84653  -1.25718   0.07921
C    -0.40299  -1.29091   1.43016
N    -0.11922  -1.31028   2.55864
N    -0.02820  -1.14894  -1.00081
C     1.04699  -0.33363  -1.13162
C     1.38881  -0.01364  -2.48942
N     1.69777   0.25863  -3.57652
C     2.17466  -0.32280  -0.16333
C     3.04702   0.77839  -0.09779
C     4.13428   0.76079   0.77244
C     4.37786  -0.36119   1.57367
C     3.54062  -1.47507   1.47959
C     2.44970  -1.46387   0.60879
C    -0.22567   1.49131  -0.47209
C     0.46626   2.71026  -0.90940
C     0.89187   3.62656   0.20404
O     0.65058   2.95371  -2.09116
C    -1.22116   1.01485   0.11751
C    -2.50675   1.10704   0.81402
C    -2.43939   1.44690   2.27295
O    -3.55255   0.91667   0.20929
H    -4.82344  -1.60028   0.03431
H    -4.35192  -3.33762   0.08232
H    -4.74327  -2.46787   1.61254
H    -0.56857  -1.31011  -1.86000
H     2.88407   1.64836  -0.73464
H     4.79774   1.62661   0.82236
H     5.22999  -0.37156   2.25680
H     3.74026  -2.36657   2.07772
H     1.83171  -2.35657   0.51296
H    -0.00716   3.99113   0.72859
H     1.49163   3.07187   0.94233
H     1.46258   4.47315  -0.20024
H    -1.84207   0.68627   2.80146
H    -3.45176   1.49696   2.69497
H    -1.91767   2.40900   2.40242
