62
Generated by autodE on: 2022-06-30. E = -1515.816198 Ha
C    -2.24763   3.53974  -2.82124
N    -1.81695   3.04904  -1.52726
C    -0.53808   2.73030  -1.28522
O     0.39204   2.99580  -2.05581
C    -0.25773   2.06879   0.06971
O    -1.41627   1.51537   0.68069
C    -1.48870   0.10167   0.37698
C    -2.22641  -0.03651  -0.96315
C    -1.57313  -0.26737  -2.17972
C    -2.28076  -0.23228  -3.38746
C    -3.65014   0.03664  -3.39528
C    -4.31317   0.26531  -2.18389
C    -3.60713   0.22446  -0.98188
C    -2.23316  -0.60850   1.49343
C    -2.52111   0.02539   2.70590
C    -3.14021  -0.68298   3.74249
C    -3.46617  -2.03127   3.57937
C    -3.17433  -2.67064   2.36842
C    -2.56577  -1.96226   1.33160
C    -0.00785  -0.34550   0.30605
C     0.66746  -0.73284   1.66198
O     0.99975   0.53565   2.23150
C     1.80260   0.98530   1.13899
C     2.77788  -0.17837   0.93868
C     4.08676   0.04174   0.32827
C     4.29226   1.22091  -0.42635
C     5.52076   1.47587  -1.03299
C     6.57979   0.57386  -0.88471
C     6.39638  -0.58806  -0.12838
C     5.16511  -0.85696   0.46904
C     2.05232  -1.28262   1.29939
C     2.31091  -2.72497   1.18430
C     1.09453  -3.62096   1.16856
O     3.44011  -3.21079   1.12158
C     0.78483   0.94508  -0.03540
H    -3.33681   3.66677  -2.80887
H    -1.78002   4.50901  -3.05210
H    -1.98263   2.83215  -3.62380
H    -2.50808   2.66038  -0.89312
H     0.09717   2.87842   0.72815
H    -0.50097  -0.45982  -2.21038
H    -1.75097  -0.41121  -4.32597
H    -4.20009   0.06905  -4.33860
H    -5.38533   0.47550  -2.17662
H    -4.13034   0.41383  -0.04234
H    -2.25419   1.07312   2.83983
H    -3.36484  -0.17518   4.68368
H    -3.94639  -2.58368   4.39046
H    -3.42390  -3.72546   2.23097
H    -2.34041  -2.46472   0.38821
H     0.11799  -1.15564  -0.41595
H     0.06363  -1.32762   2.35056
H     2.24227   1.96627   1.34575
H     3.48033   1.93701  -0.56046
H     5.65320   2.38623  -1.62199
H     7.54502   0.77869  -1.35377
H     7.22138  -1.29293  -0.00074
H     5.01977  -1.76413   1.05011
H     0.37530  -3.30600   0.39648
H     0.56908  -3.55808   2.13545
H     1.40468  -4.65848   0.99023
H     1.27614   0.93830  -1.01314
