28
Generated by autodE on: 2022-06-30. E = -691.408447 Ha
C    -2.87980   1.91462   1.09731
C    -1.58134   1.70555   0.35431
O    -0.82171   2.65339   0.14879
C    -1.31233   0.33497  -0.08806
C    -0.15301  -0.35017  -0.31731
C     1.26441  -0.01351  -0.29393
C     1.75132   1.28899  -0.53877
C     3.11980   1.55295  -0.50114
C     4.03225   0.53214  -0.21401
C     3.56624  -0.76465   0.02764
C     2.20083  -1.03833  -0.02323
C    -0.62534  -1.82679  -0.48960
C    -1.08594  -2.31739   0.89725
C    -2.21922  -1.64883   1.13047
C    -2.41679  -0.76181  -0.11750
O    -1.88335  -1.61398  -1.13993
H    -3.00850   1.16703   1.89615
H    -2.90418   2.92705   1.52069
H    -3.72771   1.79337   0.40264
H     1.04034   2.08318  -0.75314
H     3.47810   2.56580  -0.69985
H     5.10348   0.74469  -0.18404
H     4.27095  -1.56856   0.25181
H     1.85708  -2.05599   0.16868
H     0.03161  -2.48134  -1.07013
H    -0.53382  -3.00890   1.53244
H    -2.86080  -1.64464   2.01091
H    -3.43405  -0.43027  -0.34664
