34
Generated by autodE on: 2022-06-30. E = -824.273889 Ha
C     4.82931  -1.37303  -0.04519
N     3.48150  -0.85223   0.01364
C     3.24435   0.48819   0.13564
O     4.17976   1.30413   0.30352
C     1.87870   0.93587   0.07741
O     0.93387   0.00772  -0.01784
C    -0.37069   0.03064  -0.03349
C    -0.98715  -1.28834  -0.00876
C    -2.32939  -1.47617  -0.40797
C    -2.90084  -2.74784  -0.39879
C    -2.15209  -3.85957   0.00185
C    -0.81885  -3.68730   0.39626
C    -0.24092  -2.42104   0.39576
C    -1.11031   1.29741  -0.05258
C    -0.73100   2.35256  -0.90793
C    -1.46175   3.53969  -0.93207
C    -2.57241   3.70226  -0.09663
C    -2.95462   2.66443   0.75965
C    -2.23468   1.47025   0.78045
H     5.42407  -1.01794   0.80985
H     5.36097  -1.07379  -0.96676
H     4.79102  -2.46953  -0.01003
H     2.71570  -1.45137  -0.27371
H     1.61575   1.98808   0.16142
H    -2.91989  -0.62409  -0.74607
H    -3.93865  -2.87239  -0.71658
H    -2.60342  -4.85422   0.00811
H    -0.22793  -4.54867   0.71653
H     0.79167  -2.29278   0.72388
H     0.12497   2.23599  -1.57455
H    -1.16317   4.34317  -1.60913
H    -3.13812   4.63657  -0.11256
H    -3.81722   2.78645   1.41858
H    -2.53382   0.66658   1.45502
