62
Generated by autodE on: 2022-06-30. E = -1515.680260 Ha. Imaginary frequency = -164.2 cm-1
C    -0.55220   4.88090  -2.58491
N    -0.32115   4.01971  -1.44549
C    -1.30268   3.22211  -0.94554
O    -2.43395   3.17603  -1.46508
C    -0.92899   2.48413   0.25112
O    -1.66961   1.53337   0.79731
C    -2.31742   0.45620   0.41837
C    -2.96739   0.28038  -0.89801
C    -2.30101   0.45589  -2.12697
C    -2.96195   0.23293  -3.33419
C    -4.30584  -0.15343  -3.34679
C    -4.98566  -0.31837  -2.13631
C    -4.32239  -0.11017  -0.92677
C    -2.57506  -0.46250   1.53178
C    -2.37431  -0.05570   2.86823
C    -2.50622  -0.96462   3.91664
C    -2.83957  -2.29973   3.66171
C    -3.04194  -2.71556   2.34071
C    -2.91471  -1.81127   1.28761
C     0.09614  -0.50403  -0.18264
C     0.60869  -0.92925   1.20534
O     0.84115   0.34669   1.81853
C     1.67309   0.85227   0.76968
C     2.76472  -0.25854   0.72672
C     4.12568   0.04655   0.30589
C     4.35421   1.22044  -0.44960
C     5.63540   1.55239  -0.88563
C     6.72270   0.73504  -0.55799
C     6.51533  -0.42022   0.20324
C     5.23354  -0.76668   0.62875
C     2.07693  -1.40360   1.02114
C     2.43537  -2.82233   0.95858
C     1.28025  -3.78593   0.81378
O     3.59225  -3.24232   1.02162
C     0.76511   0.64312  -0.45832
H    -0.78827   4.30426  -3.49526
H     0.35176   5.47359  -2.77311
H    -1.39204   5.57069  -2.40167
H     0.60880   3.96018  -1.04502
H    -0.26699   2.94957   0.98206
H    -1.25546   0.75221  -2.14561
H    -2.42081   0.36546  -4.27386
H    -4.82069  -0.32352  -4.29526
H    -6.03864  -0.60940  -2.13150
H    -4.86419  -0.23818   0.01146
H    -2.11146   0.98129   3.07790
H    -2.34945  -0.62708   4.94399
H    -2.93985  -3.01040   4.48511
H    -3.29273  -3.75718   2.12663
H    -3.04552  -2.15981   0.26271
H    -0.47685  -1.14692  -0.84525
H    -0.04372  -1.56073   1.81441
H     2.02472   1.86655   0.97864
H     3.51831   1.86964  -0.71520
H     5.78766   2.45653  -1.47940
H     7.72879   1.00083  -0.89082
H     7.36174  -1.05772   0.46963
H     5.06933  -1.66979   1.21171
H     0.61250  -3.48623  -0.00947
H     0.67356  -3.78185   1.73451
H     1.66365  -4.79923   0.63780
H     0.88731   1.16130  -1.40697
