24
Generated by autodE on: 2022-07-27. E = -609.413830 Ha
C     1.80905  -0.75420   2.18015
N     1.47616  -0.70636   0.76989
C     1.52875   0.45575   0.08358
O     2.08340   1.46935   0.53012
C     1.02760   0.45588  -1.30927
N    -0.00347  -0.21548  -1.79459
C    -0.10654  -0.31224  -3.26937
C    -1.02435  -0.83014  -1.11786
C    -1.57809  -0.43368   0.13992
O    -2.50789  -1.02612   0.69341
O    -1.04354   0.69477   0.66876
C    -1.52628   1.11390   1.94327
H     1.10446  -0.15707   2.78465
H     2.82235  -0.36496   2.35484
H     1.76884  -1.79628   2.52065
H     0.89857  -1.45520   0.39753
H     1.60375   1.05274  -2.01595
H    -0.20684  -1.37175  -3.53851
H     0.79745   0.09856  -3.72951
H    -0.99832   0.23304  -3.60406
H    -1.59327  -1.55793  -1.69157
H    -0.90176   1.96710   2.23524
H    -1.42708   0.30696   2.68437
H    -2.58150   1.42244   1.88666
