24
Generated by autodE on: 2022-06-18. E = -609.422140 Ha
C     4.15789   1.47815   0.56749
N     2.73943   1.27645   0.37060
C     2.20478   0.02940   0.29198
O     2.92639  -0.98073   0.38814
C     0.75648   0.04408   0.09338
N    -0.02510  -1.02918  -0.01852
C     0.56448  -2.38977   0.04590
C    -1.37374  -1.00829  -0.19409
C    -2.16582   0.17805  -0.28423
O    -1.78960   1.35153  -0.22464
O    -3.48099  -0.13691  -0.45684
C    -4.38505   0.96132  -0.56640
H     4.36266   2.55528   0.60039
H     4.50385   1.02468   1.51105
H     4.74713   1.03216  -0.25069
H     2.13181   2.08438   0.29180
H     0.24510   1.00074   0.03169
H     1.31368  -2.49917  -0.74408
H     1.05209  -2.52909   1.01590
H    -0.23802  -3.12014  -0.08541
H    -1.86629  -1.97192  -0.27054
H    -4.13680   1.59543  -1.43157
H    -4.37059   1.58045   0.34392
H    -5.38203   0.52369  -0.70124
