12
Generated by autodE on: 2022-06-18. E = -381.636095 Ha
O     2.63837   0.38623   0.00156
C     1.42455   0.20848   0.00058
C     0.48138   1.35269   0.02218
C    -0.84889   1.15821   0.02213
C    -1.42455  -0.20848  -0.00056
O    -2.63837  -0.38623  -0.00158
C    -0.48138  -1.35268  -0.02218
C     0.84889  -1.15821  -0.02213
H     0.92851   2.34941   0.03828
H    -1.56248   1.98545   0.03803
H    -0.92851  -2.34941  -0.03829
H     1.56248  -1.98545  -0.03804
