29
Generated by autodE on: 2022-10-06. E = -891.653667 Ha
C    -0.63239   2.82302  -0.73606
N    -0.55506   1.38232  -0.88375
C    -1.69657   0.54584  -0.39231
C    -2.76702   0.48868  -1.48624
C    -2.32234   1.11832   0.88933
C    -1.05935  -0.87769  -0.17721
C    -1.17244  -1.37731   1.27883
O    -2.17718  -2.08750   1.54874
O    -0.28649  -1.01843   2.09832
C     0.38274  -0.75018  -0.69011
C     1.44671  -1.70936  -0.13711
O     2.58564  -1.21992   0.09069
O     1.11109  -2.91364  -0.02628
C     0.70653   0.75598  -0.55266
C     1.22741   1.16476   0.79033
N     1.58338   1.67807   1.76886
C     1.75200   1.14793  -1.52432
N     2.53354   1.46804  -2.31913
H    -1.59057   3.18259  -1.13562
H    -0.53883   3.17432   0.30902
H     0.16841   3.29801  -1.32440
H    -3.13908   1.49696  -1.72835
H    -2.36277   0.03698  -2.40469
H    -3.62193  -0.11651  -1.14695
H    -2.80704   2.08537   0.69201
H    -3.09022   0.42654   1.26184
H    -1.57699   1.25329   1.68376
H    -1.60356  -1.60097  -0.79534
H     0.36268  -0.93052  -1.77671
