19
Generated by autodE on: 2022-10-13. E = -436.562514 Ha
C    -2.86210   0.07769  -0.72979
C    -1.54267  -0.33569  -0.17026
C    -1.51412  -1.44340   0.81897
N    -0.43565   0.26020  -0.54737
C    -0.42939   1.24813  -1.64078
C     0.80768   0.07168   0.13473
C     0.85099   0.12012   1.53304
N     0.87458   0.16335   2.70532
C     1.99024  -0.04710  -0.60781
N     2.98528  -0.14451  -1.22168
H    -3.05721  -0.48129  -1.66283
H    -2.91615   1.15025  -0.95571
H    -3.65770  -0.18544  -0.02017
H    -1.59361  -1.05159   1.84850
H    -2.37750  -2.10130   0.64919
H    -0.57583  -2.01323   0.75568
H    -0.63250   2.24964  -1.23552
H     0.56462   1.24506  -2.10172
H    -1.17204   0.98731  -2.40087
