10
Generated by autodE on: 2022-10-06. E = -455.046427 Ha
O    -1.33930  -1.46296  -1.34381
C    -1.39880  -0.57814  -0.45016
O    -2.00162  -0.66182   0.65013
C    -0.75893   0.75467  -0.79282
C     0.43873   1.21927  -0.39882
C     1.41850   0.50144   0.50040
O     1.18757  -0.70223   0.80516
O     2.41725   1.17590   0.88267
H    -1.36972   1.38657  -1.45258
H     0.76165   2.21415  -0.72705
