32
Generated by autodE on: 2022-07-27. E = -843.157655 Ha
C    -2.73442  -1.57287  -1.53735
C    -1.69440  -0.60258  -1.03869
O    -0.95644  -0.00617  -1.83794
C    -1.59619  -0.33775   0.37964
O    -0.65687   0.54915   0.81979
C     0.53062   0.86189   0.41142
C     1.04088   2.09654   1.10696
C     0.08169   2.82361   2.00369
O     2.19101   2.46422   0.92799
C     1.36726   0.05740  -0.45650
C     1.28836  -1.35233  -0.39540
C     2.16890  -2.13498  -1.13274
C     3.11209  -1.53046  -1.97410
C     3.18032  -0.13611  -2.06199
C     2.32557   0.65804  -1.30165
C    -2.55053  -0.68725   1.41627
C    -2.34081  -0.08078   2.78696
O    -3.48880  -1.46655   1.20939
H    -2.62774  -1.65716  -2.62725
H    -2.60782  -2.55911  -1.06672
H    -3.74866  -1.23031  -1.28579
H    -0.25678   2.15894   2.81395
H     0.58522   3.70189   2.42561
H    -0.81565   3.13017   1.44442
H     0.55025  -1.83273   0.24848
H     2.11406  -3.22320  -1.06248
H     3.78892  -2.14918  -2.56763
H     3.90547   0.33578  -2.72811
H     2.37939   1.74218  -1.37614
H    -1.36324  -0.37241   3.20160
H    -2.35477   1.01885   2.73384
H    -3.14148  -0.42964   3.45148
