48
Generated by autodE on: 2022-05-31. E = -1053.312441 Ha
C     4.47929  -0.48197  -1.45225
N     3.19085   0.01927  -1.02526
C     2.72970  -0.13071   0.22211
O     3.39542  -0.63858   1.13691
C     1.30322   0.39911   0.48372
C     1.43871   1.38701   1.65786
N     0.76452   1.05377  -0.71355
C    -0.67957   0.91339  -0.83960
C    -1.08710   0.93034  -2.32490
C    -1.40503   2.12503  -0.21000
O    -0.84736   3.04686   0.34813
O    -2.71953   2.08342  -0.41467
C    -3.51183   3.11878   0.18468
C    -1.00021  -0.44490  -0.07953
C    -2.16884  -0.32783   0.78602
N    -3.07989  -0.28456   1.50480
C    -1.14609  -1.66882  -1.04460
C    -1.50539  -2.93626  -0.23743
C    -0.16212  -3.31341   0.44748
C     0.76273  -2.14382   0.05380
C     0.32436  -1.93929  -1.40483
C     0.32157  -0.81368   0.76096
C     0.09586  -1.01239   2.25857
H     4.76817   0.00887  -2.39064
H     4.46066  -1.57287  -1.61824
H     5.24104  -0.26870  -0.68899
H     2.51728   0.38253  -1.69622
H     1.94548   0.92700   2.51400
H     0.46273   1.76827   1.97639
H     2.04642   2.24325   1.32424
H     1.02114   2.03985  -0.73427
H    -0.52053   0.18453  -2.89246
H    -0.85476   1.92112  -2.74515
H    -2.16138   0.74751  -2.45036
H    -3.39943   3.09353   1.27821
H    -3.20866   4.10443  -0.19544
H    -4.54951   2.90462  -0.09493
H    -1.83772  -1.46824  -1.86915
H    -1.84243  -3.72313  -0.92726
H    -2.32056  -2.76405   0.47918
H    -0.25051  -3.47254   1.52848
H     0.24749  -4.23995   0.01894
H     1.82128  -2.36919   0.22225
H     0.82318  -1.10865  -1.91151
H     0.43971  -2.84986  -2.01120
H    -0.65332  -1.78629   2.45920
H    -0.25312  -0.09659   2.74860
H     1.04026  -1.31964   2.73135
