21
Generated by autodE on: 2022-05-31. E = -404.490444 Ha
C     2.38914  -0.39136  -0.32242
C     0.96428  -0.37855   0.08987
C     0.12742   0.67913   0.26561
C     0.44487   2.04296   0.06623
N     0.68956   3.17450  -0.08378
C    -1.27974   0.13222   0.51179
C    -1.74812  -0.46432  -0.85096
C    -0.78212  -1.66788  -1.04719
C     0.10875  -1.62182   0.24074
C    -0.92313  -1.15206   1.28702
H     2.80097   0.62207  -0.43339
H     2.99764  -0.94786   0.41052
H     2.49743  -0.92379  -1.28354
H    -1.98248   0.83333   0.97746
H    -2.79425  -0.79709  -0.77840
H    -1.68401   0.27649  -1.66039
H    -0.17715  -1.59244  -1.96206
H    -1.32833  -2.62187  -1.08289
H     0.66416  -2.54636   0.44211
H    -0.47731  -0.95112   2.27222
H    -1.77389  -1.84201   1.39476
