48
Generated by autodE on: 2022-05-31. E = -1053.249421 Ha. Imaginary frequency = -295.6 cm-1
C     4.37020  -1.26294  -0.98130
N     3.46261  -0.61662  -0.05555
C     2.53851   0.27087  -0.48576
O     2.53973   0.68544  -1.65348
C     1.58996   0.77195   0.55872
C     2.26090   1.19175   1.84770
N     0.55309   1.58483   0.19349
C    -0.45515   1.41394  -0.69529
C    -0.33725   1.00701  -2.13065
C    -1.62512   2.22851  -0.29162
O    -1.69128   2.84628   0.76483
O    -2.63148   2.17822  -1.16708
C    -3.84636   2.84067  -0.79034
C    -0.93229  -0.79369   0.21844
C    -2.16393  -0.36103   0.76824
N    -3.18974  -0.02968   1.22143
C    -0.94381  -1.89722  -0.84784
C    -1.38731  -3.18860  -0.09569
C    -0.17625  -3.46922   0.84026
C     0.81830  -2.31296   0.49460
C     0.56060  -2.17772  -1.01343
C     0.19990  -1.02842   1.05089
C     0.12318  -0.80706   2.53569
H     4.91121  -0.51620  -1.58030
H     3.83514  -1.93329  -1.67618
H     5.09813  -1.85483  -0.41242
H     3.36166  -1.01593   0.87033
H     2.72600   0.33857   2.35808
H     1.53694   1.63884   2.54247
H     3.05583   1.93212   1.65328
H     0.20394   2.13556   0.98444
H     0.39793   0.22100  -2.28829
H    -0.03549   1.87489  -2.74413
H    -1.31371   0.66544  -2.49282
H    -4.24721   2.39905   0.13254
H    -3.67010   3.91555  -0.64039
H    -4.54448   2.68385  -1.62071
H    -1.52053  -1.67128  -1.75285
H    -1.54145  -4.00952  -0.81234
H    -2.33028  -3.03983   0.45057
H     0.29362  -4.43621   0.60674
H    -0.44720  -3.48079   1.90506
H     1.84754  -2.51303   0.81423
H     1.11716  -1.36994  -1.49432
H     0.74967  -3.11215  -1.56211
H    -0.58585  -1.52305   2.98711
H    -0.24647   0.20028   2.77528
H     1.09349  -0.95289   3.02873
