55
Generated by autodE on: 2022-10-22. E = -1637.294532 Ha
C     0.67753  -7.37137   5.83200
O     1.35945  -7.12527   4.61738
C     1.89028  -5.81029   4.51438
C     3.07778  -5.51281   5.45227
C     4.22432  -6.51833   5.48479
C     4.81654  -6.80650   4.10794
C     3.94447  -7.78163   3.28975
C     3.45551  -7.29548   1.89516
C     2.47296  -8.39045   1.35744
F     2.87708  -9.63195   1.66925
F     1.24838  -8.23764   1.87566
F     2.34058  -8.36281   0.01939
C     4.72021  -7.29892   0.98408
F     5.24389  -8.53676   0.92048
F     5.67434  -6.49149   1.46774
F     4.51364  -6.91964  -0.28650
C     2.71604  -5.94766   1.97280
C     2.10419  -5.41818   3.05658
C     1.48574  -4.07474   2.72175
C     0.04419  -3.92412   3.18227
C    -0.88563  -4.94601   2.93190
C    -2.21145  -4.81064   3.34429
C    -2.62747  -3.64623   4.00352
C    -1.70872  -2.62355   4.25078
C    -0.37662  -2.76616   3.84397
N     1.57926  -3.99218   1.27743
C     1.59224  -2.65177   0.73015
C     2.53896  -4.97524   0.76598
C     1.97200  -5.54217  -0.54940
C     3.84574  -4.30133   0.50855
N     4.80803  -3.67817   0.32435
H     0.21635  -8.36590   5.75056
H    -0.11719  -6.62080   6.00061
H     1.35539  -7.36705   6.70342
H     1.09827  -5.12821   4.86062
H     3.46192  -4.52022   5.16326
H     2.67175  -5.39406   6.46939
H     5.00668  -6.11380   6.14773
H     3.88682  -7.46157   5.94808
H     5.82087  -7.24147   4.21840
H     4.95793  -5.85236   3.58126
H     4.48660  -8.72062   3.13525
H     3.04628  -8.03778   3.85896
H     2.08548  -3.28611   3.22751
H    -0.55910  -5.85889   2.42754
H    -2.92542  -5.61580   3.15436
H    -3.66648  -3.54029   4.32467
H    -2.02646  -1.71268   4.76395
H     0.34691  -1.97158   4.04450
H     0.68786  -2.12098   1.06262
H     2.47187  -2.05764   1.05128
H     1.57713  -2.67934  -0.36870
H     2.66995  -6.17845  -1.09637
H     1.06080  -6.10848  -0.31841
H     1.70225  -4.69617  -1.19725
