25
Generated by autodE on: 2022-10-26. E = -536.088375 Ha
C     1.39143  -0.16240  -3.61997
C     1.47870  -0.00939  -2.12691
C     2.72332   0.18276  -1.52297
N     3.78013   0.32745  -1.02627
N     0.35903  -0.01421  -1.31523
C    -0.91540  -0.34202  -1.97895
C     0.38842   0.29852  -0.01680
C    -0.62724   0.10308   0.99420
C    -1.66536  -0.86139   0.96004
C    -2.56648  -0.97727   2.01829
C    -2.46142  -0.15394   3.14443
C    -1.42308   0.78392   3.21012
C    -0.51955   0.90635   2.15890
H     2.41000  -0.17329  -4.03180
H     0.90457  -1.10364  -3.92649
H     0.85040   0.66736  -4.11012
H    -1.74804   0.02915  -1.37783
H    -0.94372   0.15073  -2.95542
H    -1.00497  -1.42712  -2.12243
H     1.32814   0.73746   0.32239
H    -1.75207  -1.55185   0.12252
H    -3.35454  -1.73266   1.96627
H    -3.17190  -0.25132   3.96832
H    -1.31817   1.42463   4.08912
H     0.28868   1.63958   2.21946
