25
Generated by autodE on: 2022-10-22. E = -536.094295 Ha
C    -2.63374   1.85566   0.45964
C    -2.46088   0.42315   0.07136
C    -3.57613  -0.36726  -0.21518
N    -4.55480  -0.97593  -0.45358
N    -1.19608  -0.11672  -0.01035
C    -1.08838  -1.52081  -0.44796
C    -0.10584   0.58459   0.31093
C     1.29071   0.23409   0.14712
C     1.82761  -0.66839  -0.80401
C     3.20332  -0.88620  -0.88394
C     4.08816  -0.21299  -0.03569
C     3.57883   0.70388   0.89245
C     2.20816   0.92786   0.97789
H    -3.69262   2.13818   0.39610
H    -2.05338   2.52517  -0.20344
H    -2.29121   2.05448   1.49313
H    -0.21457  -1.98391   0.01813
H    -1.00654  -1.57373  -1.54118
H    -1.98553  -2.06075  -0.12954
H    -0.29950   1.54933   0.77467
H     1.17969  -1.17801  -1.51407
H     3.58857  -1.58457  -1.63098
H     5.16365  -0.39053  -0.10538
H     4.25683   1.24855   1.55407
H     1.82027   1.64681   1.70381
