30
Generated by autodE on: 2022-10-22. E = -1101.108681 Ha
C     0.65173   1.89536  -3.99130
O    -0.21570   0.80142  -3.75993
C    -1.15352   1.02373  -2.71975
C    -0.49121   1.07211  -1.40479
C    -0.06165   0.67957  -0.34288
C     0.17871  -0.25479   0.75486
C     1.69983  -0.36604   1.02269
F     1.98088  -1.32448   1.91492
F     2.34807  -0.66863  -0.11101
F     2.21744   0.78206   1.48227
C    -0.54669   0.23832   2.03081
F    -1.87419   0.25858   1.84533
F    -0.30016  -0.56064   3.07879
F    -0.17639   1.47988   2.37238
C    -0.36761  -1.65927   0.31684
C    -1.65386  -1.67885  -0.53307
C    -1.52173  -1.47575  -2.06974
C    -2.11324  -0.18119  -2.66650
H     0.08757   2.80808  -4.25907
H     1.31153   1.62275  -4.82689
H     1.27402   2.11802  -3.10470
H    -1.71975   1.95112  -2.92209
H    -0.51778  -2.25019   1.23210
H     0.43412  -2.15512  -0.24841
H    -2.08596  -2.67736  -0.36662
H    -2.38889  -0.97180  -0.12224
H    -2.04427  -2.31271  -2.55713
H    -0.46748  -1.56842  -2.37900
H    -2.43434  -0.35660  -3.70554
H    -3.00870   0.11950  -2.09995
