55
Generated by autodE on: 2022-10-22. E = -1637.204203 Ha. Imaginary frequency = -174.5 cm-1
C     0.22775  -6.11089   6.07775
O     0.93794  -6.38214   4.88365
C     2.02557  -5.49042   4.63937
C     3.25443  -5.80182   5.51185
C     3.77722  -7.24284   5.48068
C     4.66016  -7.68956   4.29810
C     3.95282  -8.30249   3.07274
C     3.69637  -7.37395   1.84209
C     2.80892  -8.17057   0.84856
F     3.42499  -9.28552   0.42060
F     1.66316  -8.54449   1.43857
F     2.46637  -7.46755  -0.23994
C     5.03878  -7.00695   1.15877
F     5.83453  -8.07977   1.02153
F     5.71437  -6.10043   1.88020
F     4.87703  -6.48683  -0.06788
C     2.96056  -6.17102   2.27904
C     2.36979  -5.60463   3.20565
C     1.23868  -3.75244   2.28414
C    -0.02119  -3.70998   3.02508
C    -1.01126  -4.71628   2.98353
C    -2.15044  -4.62728   3.78212
C    -2.32885  -3.54569   4.65221
C    -1.34316  -2.55691   4.72912
C    -0.20236  -2.64194   3.93063
N     1.40387  -4.09575   0.99096
C     0.30110  -4.67080   0.21536
C     2.66034  -4.21823   0.44820
C     2.86045  -4.47650  -1.02248
C     3.73305  -3.60306   1.13474
N     4.63969  -3.08842   1.66664
H    -0.67154  -6.74322   6.07411
H    -0.08274  -5.05208   6.12905
H     0.82039  -6.34791   6.97932
H     1.69658  -4.46513   4.88155
H     4.05303  -5.09646   5.22789
H     2.98162  -5.55325   6.55043
H     4.38292  -7.36830   6.39258
H     2.92835  -7.93899   5.59032
H     5.32458  -8.47898   4.68146
H     5.32584  -6.86575   4.00311
H     4.52210  -9.17063   2.71326
H     2.96731  -8.67586   3.38158
H     2.03684  -3.12942   2.68731
H    -0.86859  -5.59935   2.36264
H    -2.89952  -5.42141   3.73738
H    -3.22241  -3.48403   5.27754
H    -1.46156  -1.71514   5.41549
H     0.56717  -1.86909   3.99760
H    -0.64734  -4.24666   0.55407
H     0.43197  -4.42654  -0.84248
H     0.28833  -5.76427   0.33556
H     3.93501  -4.53062  -1.23354
H     2.41006  -5.42124  -1.35072
H     2.44082  -3.66025  -1.63772
