28
Generated by autodE on: 2022-05-29. E = -628.880879 Ha
C     4.14459  -0.54425   1.88611
N     2.76570  -0.62460   1.46215
C     2.33095  -0.01184   0.32219
O     3.15447   0.60978  -0.38738
C     0.90227  -0.19245   0.10995
N     0.14129   0.27149  -0.90401
C     0.82403   0.92435  -2.04750
C    -1.21672   0.19043  -0.98841
C    -1.89637   0.60938  -2.26391
C    -2.02482  -0.21783   0.16381
O    -1.57430  -0.73113   1.21313
N    -3.37046  -0.00243   0.06321
C    -4.24950  -0.29837   1.17353
H     4.45245   0.49435   2.09718
H     4.26970  -1.13644   2.80136
H     4.82754  -0.94039   1.11687
H     2.09500  -1.09388   2.05940
H     0.35032  -0.72906   0.87268
H     0.33319   1.87792  -2.27030
H     0.76241   0.26946  -2.92592
H     1.86861   1.08548  -1.77863
H    -2.86798   0.10771  -2.35817
H    -2.07814   1.69865  -2.32677
H    -1.32169   0.32502  -3.15496
H    -3.73219   0.57587  -0.68395
H    -5.28703  -0.12669   0.85941
H    -4.14657  -1.34836   1.48727
H    -4.04059   0.33266   2.05541
