48
Generated by autodE on: 2022-10-22. E = -1132.152063 Ha
C    -0.84333  -2.04423  -2.01902
C    -0.10440  -2.23845  -0.91947
C     0.75294  -3.46085  -0.73736
C    -0.00638  -1.26132   0.23136
C     1.24294  -0.29490   0.15917
C     1.98544  -0.27549  -1.14304
C     3.32175  -0.23465  -1.30147
C     3.92281  -0.16068  -2.67967
C     4.32624  -0.23722  -0.18222
C     0.52566   1.08917   0.39839
C     1.33616   2.29026  -0.00492
O     1.00676   3.08169  -0.86127
O     2.46518   2.35314   0.69198
C     3.38679   3.40010   0.34881
N    -0.73043   0.90084  -0.32684
C    -1.16254  -0.24289   0.42168
C    -2.58128  -0.69921   0.28252
C    -3.01010  -1.80627   1.02910
C    -4.32737  -2.25458   0.92806
C    -5.22687  -1.60314   0.07658
C    -4.80239  -0.50057  -0.66909
C    -3.48374  -0.04747  -0.56565
O    -0.98176   0.20571   1.87379
C     0.07316   1.03151   1.86698
O     0.53953   1.55218   2.85140
H    -0.85504  -2.79069  -2.81891
H    -1.45055  -1.15087  -2.16825
H     0.43617  -4.02849   0.15465
H     0.70995  -4.12511  -1.61239
H     1.80528  -3.17370  -0.56908
H     0.06340  -1.84915   1.15575
H     1.92501  -0.49270   0.99155
H     1.36097  -0.24503  -2.03891
H     3.15432  -0.15335  -3.46647
H     4.59905  -1.01508  -2.85798
H     4.53967   0.74913  -2.78509
H     5.05640  -1.05190  -0.32664
H     4.90447   0.70303  -0.19431
H     3.87994  -0.34508   0.81420
H     4.24543   3.27642   1.01771
H     3.69953   3.29718  -0.69992
H     2.92172   4.38427   0.50084
H    -1.35504   1.70071  -0.19893
H    -2.30882  -2.31844   1.69094
H    -4.65309  -3.11758   1.51320
H    -6.25739  -1.95642  -0.00540
H    -5.49862   0.01177  -1.33681
H    -3.16212   0.80910  -1.15998
