23
Generated by autodE on: 2022-10-22. E = -351.521385 Ha
C    -0.96282   3.53361  -0.93966
C    -1.04039   2.34938  -0.29363
C    -2.11554   2.08372   0.72894
C    -0.06864   1.29628  -0.58130
C    -0.03696   0.06897  -0.00374
C     0.95161  -0.93951  -0.32709
C     1.05179  -2.18478   0.20283
C     2.13993  -3.12263  -0.23784
C     0.12411  -2.74025   1.24582
H    -0.18083   3.72354  -1.68137
H    -1.67636   4.33887  -0.74394
H    -1.67786   1.84477   1.71248
H    -2.73273   1.21652   0.44081
H    -2.77640   2.95401   0.84717
H     0.69272   1.53961  -1.33219
H    -0.79249  -0.18186   0.74581
H     1.69199  -0.65116  -1.08313
H     2.79370  -2.67265  -0.99934
H     2.76359  -3.42965   0.62101
H     1.71112  -4.05337  -0.65102
H    -0.35845  -3.66212   0.87576
H     0.69314  -3.03365   2.14573
H    -0.66452  -2.04135   1.55283
