48
Generated by autodE on: 2022-10-22. E = -1132.118388 Ha. Imaginary frequency = -434.3 cm-1
C    -0.50861  -0.92999  -2.53107
C    -0.52535  -1.76233  -1.47454
C    -1.19050  -3.11127  -1.54395
C     0.04455  -1.41139  -0.13848
C     1.34962  -0.84135   0.01990
C     2.28101  -0.48422  -1.00897
C     3.56479  -0.07045  -0.79738
C     4.47330   0.19666  -1.95812
C     4.18015   0.13606   0.55495
C     0.26667   1.47846   0.43050
C     1.10190   2.34691  -0.36238
O     0.84595   2.65192  -1.52189
O     2.21805   2.72423   0.27325
C     3.14707   3.51651  -0.47716
N    -0.93571   0.99845  -0.04898
C    -1.17415  -0.17010   0.65265
C    -2.50871  -0.81120   0.65693
C    -2.82749  -1.73536   1.66313
C    -4.04592  -2.41458   1.62876
C    -4.95035  -2.18326   0.58689
C    -4.63490  -1.26078  -0.41551
C    -3.41988  -0.57406  -0.38266
O    -0.59988   0.02962   1.90769
C     0.42451   0.98016   1.76540
O     1.19307   1.20851   2.68144
H    -0.97258  -1.22256  -3.47740
H    -0.03984   0.05614  -2.50114
H    -1.98806  -3.19154  -0.78668
H    -1.62869  -3.29848  -2.53476
H    -0.46547  -3.91328  -1.32239
H    -0.14584  -2.18088   0.61733
H     1.76360  -0.92980   1.02503
H     1.95094  -0.58140  -2.04449
H     3.98596   0.00103  -2.92388
H     5.38488  -0.42358  -1.88846
H     4.81842   1.24596  -1.94205
H     4.93662  -0.64686   0.74531
H     4.72103   1.09608   0.57975
H     3.45683   0.13225   1.37850
H     4.02384   3.64505   0.16753
H     3.42913   3.00623  -1.40809
H     2.70826   4.49629  -0.71690
H    -1.14619   1.05191  -1.04354
H    -2.11571  -1.92431   2.46809
H    -4.28849  -3.13067   2.41701
H    -5.90145  -2.71976   0.55776
H    -5.33890  -1.07217  -1.22893
H    -3.18511   0.14140  -1.17153
