37
Generated by autodE on: 2022-10-06. E = -854.641628 Ha
C     2.94995   1.31892   0.92747
N     1.91131   0.32396   1.21028
C     1.46857  -0.43006   0.05334
N     2.44580  -1.15742  -0.69958
N     0.49677  -1.48718   0.60992
N    -0.72690  -1.40390  -0.14582
C    -1.87296  -1.36386   0.65773
C    -3.14304  -1.02083  -0.04997
O    -1.77277  -1.67188   1.83435
N    -0.55555  -0.59658  -1.26451
C    -0.36356  -1.39851  -2.48089
C     0.49606   0.38547  -0.90054
C     1.16981   0.98775  -2.12630
C    -0.13880   1.53550  -0.07924
O     0.13472   2.70424  -0.23790
O    -1.02906   1.10116   0.80075
C    -1.69763   2.06974   1.62253
H     3.80875   0.91137   0.36524
H     3.32119   1.70568   1.88570
H     2.53439   2.16522   0.36661
H     2.29325  -0.34221   1.88572
H     2.90212  -0.55972  -1.38576
H     3.17323  -1.51316  -0.07530
H     0.91607  -2.42337   0.51152
H     0.23770  -1.34127   1.60579
H    -3.26644  -1.64192  -0.94898
H    -3.11449   0.03082  -0.36798
H    -3.98084  -1.18020   0.63916
H     0.58506  -1.95858  -2.48741
H    -1.20267  -2.10308  -2.54013
H    -0.41293  -0.74296  -3.35784
H     0.42363   1.52692  -2.72470
H     1.63384   0.22447  -2.75957
H     1.93923   1.70411  -1.81668
H    -2.25240   2.78159   0.99588
H    -0.96419   2.60760   2.23959
H    -2.38411   1.49585   2.25481
