13
Generated by autodE on: 2022-10-06. E = -245.298490 Ha
C    -1.63211   1.10762   0.12770
N    -0.80248  -0.02276   0.50914
C     0.39503  -0.27719  -0.02402
N     1.09574  -1.33997   0.38342
N     0.89751   0.52749  -0.96289
H    -2.54747   1.08154   0.72919
H    -1.11954   2.06426   0.31776
H    -1.91417   1.06093  -0.93657
H    -1.14907  -0.66655   1.21287
H     0.72984  -1.95534   1.10148
H     2.00576  -1.54016  -0.01591
H     0.38072   1.33062  -1.30014
H     1.80775   0.33600  -1.36689
