24
Generated by autodE on: 2022-10-06. E = -609.401916 Ha
C    -2.74823   1.77396   0.35117
O    -2.08573   0.50497   0.46904
C    -1.09533   0.27396  -0.38609
O    -0.79715   1.00297  -1.30890
C    -0.48804  -1.08094  -0.16634
C    -1.39636  -2.24653   0.04914
N     0.80450  -1.24482  -0.28566
C     1.36887  -2.60474  -0.26913
N     1.75591  -0.27310  -0.40315
C     1.60891   0.80649   0.39223
C     2.71470   1.82217   0.24813
O     0.67895   1.00979   1.20355
H    -2.02478   2.58790   0.50185
H    -3.51070   1.78981   1.13793
H    -3.21665   1.87314  -0.63826
H    -1.39669  -2.90617  -0.83538
H    -1.06868  -2.84989   0.90985
H    -2.42042  -1.90097   0.22490
H     0.82793  -3.25428  -0.96778
H     2.41877  -2.51920  -0.56005
H     1.29377  -3.01714   0.74724
H     3.52823   1.46505  -0.39573
H     2.28799   2.74404  -0.18090
H     3.10714   2.07850   1.24447
