37
Generated by autodE on: 2022-10-06. E = -854.613955 Ha. Imaginary frequency = -330.8 cm-1
C     2.70201   1.56556   0.91347
N     2.09100   0.30894   1.31408
C     1.62285  -0.60034   0.31884
N     2.59507  -1.09537  -0.60445
N     0.90133  -1.65501   0.88244
N    -0.93946  -1.62531  -0.33834
C    -1.87218  -1.29704   0.66708
C    -3.07225  -0.53968   0.15424
O    -1.80364  -1.78758   1.77349
N    -0.38478  -0.88550  -1.21018
C    -0.07033  -1.54217  -2.49267
C     0.38925   0.24324  -0.80402
C     1.04035   0.98203  -1.95858
C    -0.40437   1.17376   0.12284
O    -0.66472   0.92748   1.28250
O    -0.77871   2.28102  -0.49542
C    -1.52383   3.23815   0.28194
H     3.46545   1.39251   0.14229
H     1.99268   2.32436   0.53584
H     3.20896   2.00031   1.78662
H     1.37623   0.46335   2.02331
H     3.32526  -1.57757  -0.07556
H     3.04947  -0.33627  -1.10816
H     1.15745  -2.59441   0.59211
H     0.55770  -1.56982   1.83628
H    -3.55449  -0.04509   1.00686
H    -2.82333   0.19024  -0.62642
H    -3.77506  -1.27029  -0.27785
H    -0.71332  -2.42351  -2.56777
H    -0.28069  -0.84781  -3.31467
H     0.98871  -1.83083  -2.50068
H     0.27311   1.35881  -2.64918
H     1.72643   0.34190  -2.52251
H     1.60105   1.84392  -1.58256
H    -1.71870   4.07969  -0.39131
H    -0.92818   3.56273   1.14628
H    -2.46647   2.78950   0.62463
