33
Generated by autodE on: 2022-06-18. E = -1063.938324 Ha
C     2.99396  -0.79279  -2.05278
N     2.16179  -0.78417  -0.86657
C     2.24041   0.15425   0.08163
O     3.04350   1.09527   0.09279
C     1.24095   0.04642   1.23733
O     0.43430  -1.12974   1.15199
C    -0.89440  -0.83231   0.76486
C    -1.78393  -1.06287   1.92290
N    -2.44548  -1.23397   2.85905
C    -1.28624  -1.79115  -0.38704
O    -0.45991  -2.37416  -1.04869
O    -2.59443  -1.89985  -0.49696
C    -3.09385  -2.69617  -1.58884
C    -0.90548   0.68188   0.38702
C    -0.72701   0.98188  -1.09896
O    -1.25809   0.29567  -1.95709
C     0.04031   2.18858  -1.45882
C     0.73338   2.91613  -0.56197
C     0.78689   2.56604   0.87368
O     1.24692   3.33470   1.70087
C     0.22669   1.21503   1.27830
H     3.67638  -1.65738  -2.05239
H     3.58813   0.12841  -2.08111
H     2.36451  -0.84566  -2.95344
H     1.42294  -1.48477  -0.78072
H     1.82753   0.00510   2.16499
H    -4.18500  -2.67758  -1.49735
H    -2.77807  -2.24973  -2.54211
H    -2.71624  -3.72467  -1.51069
H    -1.87220   1.13664   0.65285
H     0.02012   2.45507  -2.51824
H     1.28130   3.81414  -0.85783
H    -0.12778   1.31018   2.31252
