21
Generated by autodE on: 2022-07-27. E = -682.209638 Ha
C     3.86437   1.17255  -1.46243
N     2.61821   0.81742  -0.81411
C     2.47634   0.89927   0.52059
O     3.36212   1.27409   1.29889
C     1.16117   0.50559   1.06701
O     0.26462   0.11553   0.24957
C    -0.99381  -0.30088   0.43052
C    -1.54091  -0.36776   1.72054
N    -1.96892  -0.41344   2.80716
C    -1.67646  -0.64985  -0.80415
O    -1.17149  -0.58073  -1.91290
O    -2.93225  -1.05590  -0.56607
C    -3.71533  -1.42466  -1.70931
H     4.69449   0.54962  -1.09297
H     4.12333   2.22697  -1.27538
H     3.75729   1.01867  -2.54242
H     1.83314   0.49947  -1.37560
H     0.96760   0.54605   2.14386
H    -4.69732  -1.71660  -1.31973
H    -3.81837  -0.57311  -2.39761
H    -3.25135  -2.26926  -2.23920
