33
Generated by autodE on: 2022-06-18. E = -1063.862245 Ha. Imaginary frequency = -173.2 cm-1
C     4.12384   0.24824  -1.19874
N     2.91258  -0.25423  -0.57998
C     2.67210  -0.06584   0.72894
O     3.48175   0.39973   1.53570
C     1.30429  -0.39460   1.19769
O     0.51508  -1.00655   0.37362
C    -0.77655  -1.26903   0.58404
C    -1.27215  -1.43901   1.89652
N    -1.66413  -1.57342   2.98632
C    -1.49203  -1.71453  -0.61907
O    -0.98924  -1.75192  -1.72550
O    -2.76132  -2.00005  -0.33901
C    -3.61329  -2.31603  -1.45318
C    -1.17163   1.28941   0.76823
C    -1.67987   1.23222  -0.61894
O    -2.86176   1.00141  -0.86692
C    -0.70233   1.47624  -1.70577
C     0.53530   1.93413  -1.44301
C     0.97862   2.20441  -0.05524
O     2.02829   2.80002   0.17289
C     0.10451   1.72271   1.03955
H     5.01200  -0.11893  -0.66468
H     4.14238   1.35084  -1.18384
H     4.16245  -0.09783  -2.23826
H     2.14635  -0.55949  -1.17478
H     1.08453  -0.37387   2.26732
H    -4.60963  -2.48180  -1.02896
H    -3.63243  -1.47498  -2.15987
H    -3.25738  -3.22348  -1.96091
H    -1.90548   1.13877   1.56098
H    -1.05717   1.30587  -2.72456
H     1.25292   2.16302  -2.23431
H     0.42078   1.96054   2.05653
