64
Generated by autodE on: 2022-06-12. E = -1641.561503 Ha
C    -2.04848  -4.62697  -3.77515
O    -2.27445  -3.29004  -4.26504
C    -1.45277  -2.34918  -3.84149
O    -0.55374  -2.50228  -3.04544
C    -1.80721  -0.94860  -4.41264
C    -2.53370  -1.04211  -5.71051
N    -3.13938  -1.04718  -6.69963
C    -0.55762  -0.08022  -4.56163
C    -0.69626   1.07440  -3.87811
C     0.24069   2.25565  -3.63581
C    -0.48025   3.59541  -3.85933
C     0.76603   2.19666  -2.16251
C     1.47753   0.94874  -1.70870
O     0.70755   3.18208  -1.45189
C     1.55275   2.27020  -4.47241
C     1.42457   2.60179  -5.96054
C     0.43800   1.75671  -6.75831
C     0.71181   0.26114  -6.83010
C     0.55727  -0.58969  -5.49539
C     1.83927  -0.78692  -4.78533
N     2.84668  -1.03229  -4.26725
C     0.26109  -1.95919  -5.98180
N     0.06123  -3.01648  -6.41170
C    -2.10180   1.11271  -3.22919
C    -3.07497   1.99121  -4.06122
O    -4.08299   2.50791  -3.63213
O    -2.76044   1.95549  -5.35160
C    -3.68584   2.53858  -6.28037
C    -2.07459   1.45438  -1.73587
C    -2.48075   2.68425  -1.19960
C    -2.33760   2.94223   0.16587
C    -1.79755   1.97489   1.01682
C    -1.41668   0.73555   0.49467
C    -1.55993   0.47801  -0.86876
N    -2.57122  -0.26439  -3.40030
C    -3.97102  -0.59030  -3.20624
H    -2.12552  -4.64419  -2.67955
H    -1.05267  -4.96929  -4.08891
H    -2.83000  -5.24618  -4.22799
H     0.23290   4.41705  -3.70993
H    -0.87841   3.66309  -4.87782
H    -1.30188   3.75380  -3.15434
H     1.49637   0.92153  -0.61236
H     2.51678   0.99468  -2.07395
H     1.02805   0.03219  -2.10771
H     2.09619   1.33285  -4.33696
H     2.19922   3.03625  -4.01516
H     2.42996   2.50187  -6.40337
H     1.14328   3.65944  -6.07794
H     0.45366   2.10639  -7.80359
H    -0.58955   1.92260  -6.40678
H    -0.01203  -0.17624  -7.53071
H     1.71688   0.05216  -7.22532
H    -3.25487   2.37374  -7.27392
H    -4.66412   2.04474  -6.20026
H    -3.79398   3.61408  -6.08172
H    -2.91038   3.45328  -1.83694
H    -2.65214   3.90953   0.56420
H    -1.68209   2.18272   2.08315
H    -1.00094  -0.03359   1.14949
H    -1.25842  -0.48692  -1.27594
H    -4.32463  -0.10043  -2.28909
H    -4.08134  -1.67615  -3.07713
H    -4.61823  -0.27264  -4.04567
