30
Generated by autodE on: 2022-06-12. E = -688.744294 Ha
C    -2.30315   0.12254  -2.26552
C    -0.96051   0.52399  -2.80130
O    -0.76668   0.74402  -3.98316
C     0.21853   0.60488  -1.80919
C     1.18981   1.72203  -2.21998
C    -0.19346   0.75165  -0.41786
C    -0.26525   0.63551   0.78585
C    -0.00611  -0.06226   2.05309
C     0.16545   0.85954   3.19473
N     0.33692   1.58248   4.08367
C    -1.13358  -0.97393   2.35119
N    -1.99857  -1.71740   2.55548
C     1.31799  -0.90114   1.85544
C     1.35106  -1.76285   0.58151
C     1.90733  -1.12920  -0.72421
C     0.91566  -0.80917  -1.86009
H    -2.70432   0.95209  -1.65933
H    -2.99236  -0.09615  -3.09121
H    -2.21329  -0.74494  -1.59402
H     2.08389   1.70913  -1.58147
H     1.49384   1.57394  -3.26466
H     0.71066   2.70796  -2.12904
H     2.14413  -0.17501   1.85473
H     1.42630  -1.52999   2.75121
H     1.99918  -2.61586   0.83234
H     0.35505  -2.20117   0.40036
H     2.61941  -1.85178  -1.15118
H     2.50898  -0.23793  -0.48236
H     0.13463  -1.58641  -1.88035
H     1.43412  -0.85324  -2.82996
