34
Generated by autodE on: 2022-07-27. E = -952.724575 Ha
C     0.69948  -4.60732  -2.58213
O     0.04728  -3.44865  -2.05609
C     0.69781  -2.77933  -1.07490
O     1.77929  -3.15969  -0.64003
C    -0.05493  -1.60818  -0.67334
C    -1.20752  -1.25104  -1.39580
N    -2.17392  -0.93579  -1.97589
N     0.34992  -0.76430   0.37595
C     0.94758  -1.40519   1.56668
C     0.12222   0.53759   0.34838
C    -0.10400   1.20682  -0.98610
O     0.62254   1.05440  -1.94402
O    -1.14675   2.02368  -0.94473
C    -1.45007   2.74804  -2.15085
C     0.12227   1.40191   1.53250
C     0.72222   2.67490   1.44903
C     0.71315   3.52994   2.54869
C     0.08819   3.13787   3.73766
C    -0.52999   1.88576   3.82140
C    -0.51364   1.01901   2.73005
H     0.84827  -5.36359  -1.79707
H     1.67386  -4.34421  -3.02023
H     0.03365  -5.00079  -3.35958
H     1.46362  -0.65365   2.16882
H     1.65946  -2.15322   1.20898
H     0.15899  -1.89750   2.14967
H    -1.66456   2.04141  -2.96456
H    -2.33509   3.35144  -1.92183
H    -0.60482   3.39326  -2.42828
H     1.21368   2.98542   0.52449
H     1.19404   4.50769   2.47727
H     0.07582   3.81213   4.59691
H    -1.03523   1.58396   4.74132
H    -1.01957   0.05559   2.79730
