64
Generated by autodE on: 2022-06-12. E = -1641.456155 Ha. Imaginary frequency = -266.3 cm-1
C    -2.04769  -4.68396  -5.22321
O    -2.36744  -3.28727  -5.16587
C    -2.12284  -2.65094  -4.00762
O    -1.60126  -3.19327  -3.05109
C    -2.51478  -1.22942  -4.10689
C    -3.27412  -0.88146  -5.26076
N    -3.91672  -0.63806  -6.20183
C    -0.38516  -0.22470  -4.69669
C    -0.27732   0.77570  -3.96419
C     0.58443   1.89497  -3.46792
C     0.00722   3.28899  -3.74934
C     0.90820   1.65574  -1.97550
C     1.19835   2.84754  -1.10868
O     1.00866   0.51416  -1.55658
C     2.00080   1.76829  -4.13334
C     2.11524   2.09727  -5.62371
C     1.33804   1.20873  -6.60574
C     1.52797  -0.29413  -6.35330
C     0.22634  -1.00648  -5.81191
C     0.63931  -2.35258  -5.36387
N     1.04855  -3.37919  -5.01694
C    -0.67944  -1.15423  -6.97414
N    -1.30611  -1.23863  -7.94430
C    -2.46889   0.89379  -3.01320
C    -3.06374   1.60162  -4.23916
O    -2.48017   2.18610  -5.11789
O    -4.39219   1.54414  -4.13483
C    -5.14993   2.20050  -5.16533
C    -2.45848   1.75364  -1.80519
C    -3.07883   3.02420  -1.84130
C    -3.04439   3.87458  -0.73893
C    -2.39099   3.48551   0.43387
C    -1.76214   2.23966   0.48466
C    -1.78728   1.38897  -0.61807
N    -2.62904  -0.45337  -2.95428
C    -2.78084  -1.15293  -1.66177
H    -2.65580  -5.24191  -4.49646
H    -0.98188  -4.84776  -5.01630
H    -2.28943  -5.00201  -6.24381
H    -0.89540   3.48675  -3.16141
H     0.75548   4.05613  -3.50696
H    -0.25117   3.38804  -4.80935
H     2.00578   3.45075  -1.55255
H     0.31351   3.49642  -1.03936
H     1.49105   2.51061  -0.10653
H     2.36930   0.75197  -3.93250
H     2.67419   2.45249  -3.59253
H     3.18855   2.02208  -5.86865
H     1.84032   3.14860  -5.80071
H     0.26785   1.46535  -6.58865
H     1.68343   1.44303  -7.62375
H     2.31499  -0.47892  -5.61032
H     1.81919  -0.83166  -7.26648
H    -4.88842   3.26720  -5.20643
H    -6.20262   2.07213  -4.89048
H    -4.94360   1.72580  -6.13464
H    -3.60324   3.36606  -2.73239
H    -3.53590   4.84772  -0.79893
H    -2.36502   4.15302   1.29785
H    -1.22684   1.92931   1.38418
H    -1.24016   0.45497  -0.55929
H    -3.38199  -2.05024  -1.82753
H    -1.81362  -1.43951  -1.23698
H    -3.31927  -0.49282  -0.97587
