12
Generated by autodE on: 2022-06-17. E = -157.300302 Ha
C     1.95984  -0.10569   0.07333
C     0.49870  -0.23484   0.38049
C    -0.49871   0.23457  -0.38064
C    -1.95983   0.10587  -0.07323
H     2.49305   0.42776   0.88026
H     2.13234   0.43762  -0.86910
H     2.44057  -1.09682  -0.00894
H     0.24342  -0.76272   1.31011
H    -0.24343   0.76231  -1.31034
H    -2.49409  -0.42412  -0.88170
H    -2.13246  -0.44035   0.86749
H    -2.43938   1.09729   0.01279
