23
Generated by autodE on: 2022-06-17. E = -646.317897 Ha
C     3.50046  -1.11531   0.45393
N     3.44303  -0.31972  -0.75928
C     2.35202   0.26472  -1.26407
O     2.27282   0.92901  -2.29746
C     1.11478   0.09841  -0.49981
N     0.02705   0.06306  -0.07844
C    -1.21858   0.03305   0.39857
C    -1.45563  -0.73681   1.62323
C    -0.25838  -1.43511   2.23124
O    -2.56883  -0.81892   2.14051
C    -2.23208   0.77851  -0.35634
C    -1.75690   1.50319  -1.59717
O    -3.41023   0.82033  -0.00664
H     3.73673  -2.16511   0.22464
H     2.53238  -1.08502   0.97314
H     4.26599  -0.71803   1.13564
H     4.29247  -0.20286  -1.30969
H     0.52426  -0.70712   2.49965
H    -0.57842  -1.97558   3.13087
H     0.18745  -2.14393   1.51520
H    -2.61260   1.99852  -2.07297
H    -0.99251   2.25484  -1.34073
H    -1.29113   0.80336  -2.30953
