35
Generated by autodE on: 2022-06-17. E = -803.612657 Ha. Imaginary frequency = -322.7 cm-1
C     4.08155   0.27659   2.39772
N     2.71862   0.18325   1.90399
C     2.45151   0.14172   0.59243
O     3.28321   0.16264  -0.31212
C     1.00341   0.02316   0.25506
N    -0.01951   0.61645   0.44967
C    -1.32067   0.69957   0.10139
C    -2.30006   0.11502   1.01512
C    -1.76073  -0.50211   2.28618
O    -3.50822   0.09151   0.76389
C    -1.58518   1.49266  -1.09879
C    -3.00054   1.61313  -1.60072
O    -0.65429   2.04419  -1.69772
C    -0.51783  -1.53859  -1.55764
C    -0.62723  -0.87964  -2.89433
C     0.68123  -1.75675  -0.91977
C     0.82402  -2.77542   0.18679
H     4.72895  -0.42126   1.84834
H     4.09027   0.01605   3.46272
H     4.48574   1.29439   2.27499
H     1.94361   0.21820   2.56130
H    -1.13377  -1.37550   2.04557
H    -2.60010  -0.82183   2.91673
H    -1.12625   0.20911   2.83765
H    -2.98975   2.19661  -2.53100
H    -3.63564   2.11033  -0.85206
H    -3.44300   0.62259  -1.77798
H    -1.42614  -1.97268  -1.12562
H    -0.41703  -1.61441  -3.69426
H    -1.63382  -0.48171  -3.08228
H     0.09985  -0.06023  -3.00446
H     1.59278  -1.51589  -1.48246
H     1.61633  -2.51765   0.90577
H    -0.11864  -2.89433   0.74172
H     1.08863  -3.75844  -0.23932
