40
Generated by autodE on: 2022-06-20. E = -1159.767681 Ha
C     4.74914   1.29045   1.26475
N     3.60531   1.02433   0.41342
C     2.35627   0.99358   0.87191
O     1.98837   1.23854   2.01988
C     1.28417   0.61252  -0.18056
C     0.25281   1.67467  -0.11627
N    -0.51166   2.54667  -0.10890
O     1.81797   0.57257  -1.48867
N     1.34666  -0.62910  -2.19207
C     0.25583  -1.16529  -1.37031
C     0.05734  -2.65192  -1.68004
C    -1.07067  -0.46677  -1.70976
O    -1.27149  -0.05134  -2.83728
C    -2.10870  -0.35042  -0.65697
O    -3.28649   0.03231  -1.14455
C    -4.23099   0.76707  -0.34865
C    -1.78792  -0.56257   0.66098
O    -2.75219  -0.53690   1.60449
C    -2.59334   0.34541   2.73002
C    -0.41596  -0.89076   1.08914
O    -0.19305  -1.19404   2.25160
C     0.72325  -0.84616   0.06773
C     1.85146  -1.77126   0.53145
H     4.44361   1.93950   2.09536
H     5.16408   0.35859   1.68247
H     5.53030   1.79371   0.68033
H     3.74323   0.76397  -0.56015
H     0.91643  -0.23229  -3.03608
H    -0.70986  -3.08224  -1.02103
H     0.99923  -3.19867  -1.55199
H    -0.27534  -2.76509  -2.72180
H    -4.92947   1.21204  -1.06861
H    -3.71933   1.56238   0.21271
H    -4.77177   0.10530   0.33869
H    -3.60102   0.69356   2.99545
H    -2.14714  -0.18752   3.57996
H    -1.96888   1.21055   2.46286
H     1.47418  -2.79658   0.63319
H     2.68039  -1.76792  -0.18635
H     2.22032  -1.45779   1.51470
