14
Generated by autodE on: 2022-06-20. E = -470.221441 Ha
C    -1.98613   0.66971  -2.20550
N    -0.90966   0.72371  -1.23778
C    -0.62253  -0.29454  -0.41008
O    -1.21783  -1.37963  -0.36286
C     0.51412  -0.09121   0.52753
C     0.85433  -1.14245   1.41831
N     1.13412  -2.00473   2.14900
O     1.27525   0.96311   0.64653
N     1.14935   2.04932  -0.06851
H    -2.70948   1.47954  -2.02384
H    -2.50061  -0.29416  -2.12344
H    -1.59401   0.78073  -3.22847
H    -0.32571   1.56054  -1.16158
H     1.90582   2.63802   0.30460
