26
Generated by autodE on: 2022-06-20. E = -689.460841 Ha
C    -2.73478   1.44212   1.01649
O    -2.21361   0.12193   0.82950
C    -0.92207   0.04283   0.39378
C    -0.58599  -0.37326  -0.85989
O    -1.37956  -0.71437  -1.87510
C    -2.80365  -0.57692  -1.82341
C     0.86423  -0.51421  -1.23860
O     1.14446  -0.89154  -2.36817
C     1.91606  -0.17932  -0.24465
C     3.34505  -0.32038  -0.66961
C     1.57019   0.24149   0.99727
C     2.59429   0.59360   2.02934
C     0.13133   0.34430   1.38668
O    -0.18819   0.66447   2.53036
H    -3.77278   1.32346   1.35445
H    -2.16399   1.99495   1.77689
H    -2.72205   2.00263   0.06695
H    -3.15927  -0.88657  -2.81433
H    -3.09029   0.46883  -1.64130
H    -3.23697  -1.22600  -1.05188
H     3.87983  -1.02365  -0.01023
H     3.41919  -0.67986  -1.70259
H     3.87152   0.64527  -0.59248
H     2.12047   0.91632   2.96366
H     3.25276   1.39944   1.66525
H     3.24549  -0.27062   2.24216
