40
Generated by autodE on: 2022-06-20. E = -1159.694530 Ha. Imaginary frequency = -211.9 cm-1
C     3.57896   0.82287   2.83567
N     2.54268   1.08293   1.85390
C     2.77083   0.87954   0.54168
O     3.86179   0.56765   0.06279
C     1.57913   1.02967  -0.33682
C     0.44131   1.80174  -0.00516
N    -0.46431   2.47427   0.28632
O     1.77972   0.69544  -1.59645
N     0.70902   0.58050  -2.35790
C    -0.05036  -1.41185  -1.45743
C     0.56714  -2.25753  -2.53511
C    -1.45197  -0.94625  -1.68538
O    -1.98763  -1.04127  -2.77967
C    -2.20661  -0.35376  -0.54117
O    -3.37414   0.17709  -0.92368
C    -4.00872   1.19229  -0.13462
C    -1.72857  -0.46441   0.73428
O    -2.52013  -0.16884   1.79207
C    -2.07072   0.73558   2.81183
C    -0.36476  -0.97916   0.98120
O     0.04955  -1.08729   2.13690
C     0.47749  -1.38825  -0.17259
C     1.77626  -2.06613   0.13791
H     4.51332   1.31816   2.53825
H     3.77818  -0.25724   2.93883
H     3.25672   1.21943   3.80614
H     1.57973   1.12173   2.17989
H     1.11057   0.24192  -3.24398
H     1.65523  -2.11823  -2.58475
H     0.38329  -3.32353  -2.31476
H     0.12807  -2.03200  -3.51451
H    -4.54051   0.75847   0.72170
H    -4.72367   1.68309  -0.80782
H    -3.26717   1.92491   0.21691
H    -2.97154   1.23239   3.19902
H    -1.57175   0.19209   3.62513
H    -1.39158   1.49422   2.39964
H     1.67431  -3.15759   0.00667
H     2.57370  -1.73494  -0.54302
H     2.08343  -1.87289   1.17192
