12
Generated by autodE on: 2022-05-25. E = -373.908835 Ha
C     2.44102   0.43938   0.02492
N     1.91190  -0.88125  -0.20221
N     0.65490  -1.00992  -0.19432
C    -0.40593  -0.15326  -0.01531
C    -1.69385  -0.73753  -0.07245
N    -2.76220  -1.20477  -0.11692
C    -0.33252   1.24116   0.20927
N    -0.39679   2.39143   0.39551
H     2.12020   0.84236   1.00015
H     2.12192   1.14301  -0.76239
H     3.53457   0.37257   0.01301
H     0.34862  -1.97867  -0.35669
