12
Generated by autodE on: 2022-07-26. E = -373.912223 Ha
C    -0.22219  -3.01289   0.60677
N    -0.32416  -1.77063  -0.11821
N     0.08389  -0.75822   0.50567
C     0.08872   0.52527   0.02414
C     0.58997   1.55581   0.84460
N     1.00245   2.42161   1.51093
C    -0.39934   0.78522  -1.27361
N    -0.79924   1.01948  -2.34449
H     0.21450  -2.89622   1.61302
H    -1.22652  -3.45781   0.69134
H     0.38970  -3.71616   0.01986
H     0.45613  -0.85984   1.46923
