14
Generated by autodE on: 2022-05-25. E = -399.800817 Ha
N     3.04894  -0.86538  -0.88617
C     2.02833  -0.43969  -0.51635
C     0.78460   0.03995  -0.05522
C     0.29409   1.29191  -0.05697
C    -1.13964   1.14742   0.49460
C    -1.96027   0.40753  -0.58619
C    -1.48520  -0.84097  -0.58312
C    -0.38248  -0.84285   0.49636
O    -0.93388   0.08183   1.44196
H     0.75606   2.21010  -0.41601
H    -1.58425   2.03544   0.95478
H    -2.70747   0.87111  -1.22884
H    -1.73904  -1.68798  -1.21902
H    -0.09991  -1.79769   0.94989
