53
Generated by autodE on: 2022-06-06. E = -1466.711196 Ha
C    -2.53870 -12.71104   1.44047
N    -3.35892 -11.64458   0.89988
C    -3.52106 -10.49868   1.55935
O    -3.08512 -10.29234   2.69485
C    -4.40003  -9.40216   0.89102
C    -4.73399  -9.51300  -0.64126
C    -5.45427  -8.34944  -1.25944
O    -4.47680 -10.51677  -1.27456
N    -5.72540  -9.59423   1.48133
C    -6.03885  -8.48714   2.06166
C    -7.45919  -8.41080   2.58452
C    -7.79412  -9.28026   3.75332
O    -8.27142  -7.72837   1.98542
C    -4.98675  -7.43330   2.01007
C    -3.96955  -8.00014   1.29162
C    -2.59762  -7.39340   0.97594
C    -2.80086  -6.12714   0.24351
N    -2.93828  -5.19152  -0.42730
C    -1.73656  -8.20896  -0.04539
F    -0.59910  -7.54944  -0.29615
F    -2.36200  -8.38083  -1.22220
F    -1.40196  -9.42196   0.40425
C    -1.67658  -7.24495   2.25771
C    -2.34141  -7.09945   3.62465
C    -2.93930  -5.73220   3.93832
C    -3.94847  -5.20782   2.92064
C    -5.21210  -6.05776   2.64673
C    -6.09920  -5.25545   1.66476
C    -5.94595  -6.22659   3.99670
H    -2.89150 -13.00843   2.43924
H    -2.59573 -13.57736   0.77028
H    -1.48501 -12.39884   1.53101
H    -3.68567 -11.67109  -0.06652
H    -4.72376  -7.56644  -1.51398
H    -6.19051  -7.90487  -0.57759
H    -5.94295  -8.68839  -2.18199
H    -7.10663  -9.06716   4.58684
H    -7.63012 -10.33192   3.46621
H    -8.83775  -9.12912   4.05797
H    -0.98306  -6.41247   2.07200
H    -1.07875  -8.16362   2.29230
H    -1.55166  -7.30938   4.36432
H    -3.08635  -7.89579   3.75853
H    -2.12247  -4.99325   4.00452
H    -3.39628  -5.77131   4.94004
H    -4.32333  -4.23638   3.28060
H    -3.43686  -4.96819   1.98392
H    -6.37022  -4.28921   2.11837
H    -7.02402  -5.79559   1.42430
H    -5.55810  -5.05664   0.72782
H    -5.93404  -5.26755   4.53550
H    -7.00105  -6.49976   3.87459
H    -5.46174  -6.98067   4.63428
