30
Generated by autodE on: 2022-06-06. E = -820.287774 Ha
C    -1.59594  -0.33224  -3.33768
C    -0.85882  -1.32153  -2.41589
C    -1.45022  -2.73042  -2.57684
C    -0.91492  -0.85156  -1.03078
C    -0.63570  -0.34044   0.03282
C     0.29904   0.26788   0.98586
C     0.80475  -0.76698   1.90806
N     1.22897  -1.58602   2.60987
C    -0.37690   1.37129   1.83164
F    -1.37454   0.86913   2.57208
F    -0.89006   2.32353   1.04617
F     0.49987   1.94748   2.66488
C     1.48888   0.86301   0.15762
C     2.10786  -0.09336  -0.87882
C     1.50818  -0.12054  -2.31363
C     0.67291  -1.34746  -2.73470
H    -1.51605  -0.67408  -4.38126
H    -1.16834   0.67873  -3.26815
H    -2.66253  -0.27263  -3.07311
H    -0.96700  -3.44368  -1.89217
H    -1.29526  -3.08171  -3.60883
H    -2.53175  -2.72875  -2.37217
H     1.10328   1.76292  -0.34359
H     2.25434   1.18712   0.87717
H     3.15743   0.22377  -0.97103
H     2.15033  -1.11530  -0.46488
H     2.35816  -0.07709  -3.01197
H     0.93851   0.80612  -2.49529
H     0.75798  -1.48690  -3.82513
H     1.10443  -2.24879  -2.26893
