53
Generated by autodE on: 2022-06-06. E = -1466.597609 Ha. Imaginary frequency = -254.7 cm-1
C    -2.34545 -12.24227   1.90861
N    -3.32807 -11.59772   1.06209
C    -4.17719 -10.68483   1.55435
O    -4.33799 -10.46802   2.76223
C    -4.96350  -9.90194   0.53182
C    -4.79483  -9.95418  -0.93752
C    -5.69437  -9.07391  -1.75868
O    -3.94398 -10.67661  -1.45283
N    -5.99458  -9.27745   1.02859
C    -6.47322  -8.41698   1.72069
C    -7.80319  -8.32081   2.39240
C    -7.96829  -9.25175   3.55473
O    -8.64416  -7.55246   1.97368
C    -4.72136  -6.99567   1.88648
C    -3.81645  -7.46705   1.17413
C    -2.38172  -7.21431   0.87669
C    -2.27019  -5.85072   0.31873
N    -2.17537  -4.78562  -0.13011
C    -1.79797  -8.13904  -0.21833
F    -0.53377  -7.79422  -0.50890
F    -2.50755  -8.05820  -1.35447
F    -1.78706  -9.41727   0.17038
C    -1.50046  -7.34483   2.17923
C    -2.21106  -7.14217   3.51954
C    -2.73086  -5.74679   3.90304
C    -3.86424  -5.08570   3.10154
C    -5.15225  -5.91878   2.83362
C    -6.19031  -5.01171   2.14936
C    -5.71136  -6.46130   4.15796
H    -2.82360 -12.65845   2.80643
H    -1.86959 -13.05706   1.34878
H    -1.56459 -11.53307   2.23439
H    -3.20182 -11.58725   0.04841
H    -5.64673  -8.03441  -1.40027
H    -6.73977  -9.40848  -1.65973
H    -5.39048  -9.12575  -2.81138
H    -7.02953  -9.35483   4.11719
H    -8.21766 -10.24696   3.14637
H    -8.78709  -8.90513   4.19924
H    -0.64784  -6.65787   2.07704
H    -1.09242  -8.36489   2.17981
H    -1.46272  -7.41602   4.28204
H    -3.01010  -7.89181   3.61507
H    -1.87959  -5.04394   3.89574
H    -3.04800  -5.81519   4.95658
H    -4.18009  -4.18703   3.65780
H    -3.49144  -4.71849   2.13623
H    -6.50100  -4.21166   2.83953
H    -7.08383  -5.58039   1.85563
H    -5.76556  -4.54487   1.24756
H    -5.73594  -5.64759   4.89922
H    -6.74264  -6.82090   4.04969
H    -5.09830  -7.27870   4.56255
