34
Generated by autodE on: 2022-06-17. E = -935.714691 Ha
C     3.30142  -1.00089  -1.24464
O     2.46653  -0.01110  -0.61989
C     1.22420  -0.36940  -0.32436
O     0.77239  -1.47676  -0.54783
C     0.37315   0.80259   0.19526
C     1.09366   1.55455   1.33080
C     0.66076   2.96054   1.62554
O     1.96043   0.98993   1.97069
C    -1.00602   0.26937   0.68967
C    -0.94995  -0.95724   1.57759
O    -0.27037  -0.96445   2.59434
C    -1.78437  -2.12520   1.22445
C    -2.37665  -2.25194   0.02376
C    -2.22696  -1.22513  -1.03203
O    -2.44964  -1.50049  -2.20247
C    -1.85874   0.17462  -0.59867
C    -1.07928   0.96554  -1.65880
N    -0.04029   1.67101  -0.90830
C     0.98578   2.26367  -1.75035
H     4.26846  -0.51438  -1.41368
H     3.41982  -1.86949  -0.58177
H     2.86123  -1.32177  -2.19918
H     1.06052   3.26504   2.60147
H     1.05998   3.63284   0.84899
H    -0.43313   3.06487   1.60747
H    -1.43536   1.05125   1.33225
H    -1.83753  -2.91455   1.97896
H    -2.92495  -3.15601  -0.25435
H    -2.83294   0.65232  -0.40193
H    -1.70538   1.68698  -2.20299
H    -0.64825   0.27535  -2.40991
H     1.77491   2.72460  -1.14130
H     0.52633   3.05254  -2.36571
H     1.46129   1.53592  -2.43610
