22
Generated by autodE on: 2022-06-17. E = -554.026056 Ha
C    -1.38211  -1.56460  -1.40482
N    -0.72232  -1.24974  -0.34345
C    -0.67466  -2.18037   0.79921
C    -0.30407   0.10327  -0.13198
C    -1.33114   1.09237  -0.31975
C    -1.05306   2.53053   0.06764
O    -2.45475   0.80514  -0.78295
C     1.03809   0.36265   0.30776
O     1.49710   1.44173   0.68200
O     1.83719  -0.74288   0.23784
C     3.17992  -0.58622   0.69563
H    -1.40291  -0.87783  -2.24943
H    -1.88867  -2.53122  -1.45641
H    -1.34246  -1.79667   1.58292
H    -0.99732  -3.17625   0.47383
H     0.34968  -2.22462   1.18113
H    -0.23298   2.94517  -0.53751
H    -0.74310   2.61598   1.11863
H    -1.96763   3.11387  -0.10411
H     3.65616  -1.56806   0.58133
H     3.20686  -0.27977   1.75245
H     3.71876   0.16106   0.09377
