23
Generated by autodE on: 2022-05-29. E = -646.307758 Ha
C     4.30214   1.16735  -0.02181
O     2.87016   1.19750  -0.07706
C     2.23821   0.02232   0.07194
O     2.83244  -1.02857   0.24507
C     0.79201   0.27704  -0.01707
N    -0.18062  -0.60611   0.09123
C     0.10180  -2.04173   0.33739
C    -1.52587  -0.27245  -0.01121
C    -2.46259  -1.32337   0.12271
N    -3.27327  -2.15801   0.22539
C    -2.02863   1.07280  -0.24496
C    -3.53104   1.22751  -0.32057
O    -1.29420   2.06107  -0.37897
H     4.63042   2.20444  -0.15506
H     4.70479   0.53352  -0.82550
H     4.64179   0.78163   0.95060
H     0.48361   1.30372  -0.19237
H    -0.31094  -2.62348  -0.49584
H     1.17805  -2.19177   0.40978
H    -0.39125  -2.33547   1.27213
H    -3.76658   2.28499  -0.49472
H    -4.00981   0.89413   0.61351
H    -3.94923   0.61934  -1.13801
