33
Generated by autodE on: 2022-05-29. E = -1411.260912 Ha. Imaginary frequency = -344.9 cm-1
C    -4.09787   1.59194  -0.04264
O    -2.67645   1.67854   0.14072
C    -1.91318   1.19813  -0.85615
O    -2.36780   0.72642  -1.88787
C    -0.51798   1.31663  -0.56340
C     0.69447   1.47790  -0.33849
Cl    2.02102   2.50378  -0.55277
C     1.47386  -0.06197   0.96652
C     2.30825  -1.03889   0.18247
O     2.50412  -2.16579   0.58904
O     2.95693  -0.47077  -0.82249
C     3.86319  -1.30928  -1.55486
N     0.30714  -0.41690   1.53856
C    -0.06625   0.31597   2.76604
C    -0.71554  -1.01552   0.85557
C    -1.97738  -1.07935   1.50798
N    -3.03575  -1.13009   1.99180
C    -0.60948  -1.67157  -0.46417
C    -1.85157  -2.34551  -0.98167
O     0.42810  -1.66203  -1.12078
H    -4.41000   0.54453  -0.15550
H    -4.54138   2.02037   0.86339
H    -4.40869   2.16708  -0.92669
H     2.09792   0.57472   1.59965
H     4.31208  -0.66763  -2.32146
H     4.64031  -1.71221  -0.88991
H     3.31275  -2.13707  -2.02477
H     0.84221   0.69820   3.23973
H    -0.73675   1.14581   2.49906
H    -0.57480  -0.36648   3.45724
H    -2.67697  -1.62417  -1.07925
H    -2.17888  -3.13481  -0.28702
H    -1.63074  -2.78166  -1.96350
