33
Generated by autodE on: 2022-06-17. E = -744.405914 Ha
C     2.84970   2.10744  -1.29106
O     2.33433   0.77307  -1.17402
C     1.80631   0.45427   0.00928
O     1.73054   1.20871   0.96122
N     1.35541  -0.84949   0.04845
N     1.36742  -1.64773  -1.07569
N     0.82704  -2.74484  -0.86481
C     0.37938  -2.85517   0.52976
C     0.51716  -1.43155   1.12727
C     1.22321  -1.44915   2.48289
C    -0.82622  -0.73905   1.21185
C    -1.34417   0.08967   0.28713
C    -2.65201   0.71271   0.39991
C    -3.21060   1.58318  -0.47524
C    -2.54871   2.06449  -1.73593
C    -4.58201   2.14695  -0.22954
H     3.24089   2.18597  -2.31192
H     3.65523   2.27601  -0.56209
H     2.04963   2.84493  -1.13413
H    -0.64614  -3.24308   0.56259
H     1.03369  -3.58564   1.03142
H     0.62714  -2.04588   3.18981
H     2.21819  -1.90882   2.39241
H     1.33035  -0.43455   2.88702
H    -1.40579  -0.98702   2.10797
H    -0.75614   0.31638  -0.60700
H    -3.23186   0.44294   1.29043
H    -1.53787   1.66441  -1.88697
H    -2.48378   3.16675  -1.73373
H    -3.16018   1.79597  -2.61545
H    -4.54723   3.24976  -0.17423
H    -5.02801   1.76532   0.70059
H    -5.25992   1.90455  -1.06752
