23
Generated by autodE on: 2022-06-17. E = -351.521381 Ha
C     3.51365   0.09107  -1.39464
C     2.51594   0.31220  -0.51060
C     2.76451   1.04193   0.78475
C     1.16334  -0.15751  -0.80373
C     0.07856   0.00726  -0.00562
C    -1.24299  -0.47927  -0.34550
C    -2.37717  -0.34490   0.38739
C    -2.45309   0.35738   1.71333
C    -3.68024  -0.91093  -0.10197
H     4.53440   0.43232  -1.20093
H     3.32982  -0.43843  -2.33461
H     3.81911   1.33667   0.87964
H     2.14351   1.95053   0.85428
H     2.50077   0.41395   1.65196
H     1.03556  -0.68548  -1.75647
H     0.19805   0.53337   0.94535
H    -1.31953  -1.01175  -1.30129
H    -3.18347   1.18438   1.66516
H    -2.82483  -0.33305   2.49104
H    -1.49338   0.76886   2.05131
H    -3.57538  -1.41695  -1.07291
H    -4.43978  -0.11482  -0.20283
H    -4.09120  -1.63333   0.62609
