10
Generated by autodE on: 2022-06-17. E = -392.847645 Ha
C    -2.73220  -0.10994   0.13680
O    -1.45934   0.29522   0.66765
C    -0.39426  -0.05204  -0.03939
O    -0.39640  -0.67304  -1.07934
N     0.75214   0.42685   0.62791
N     1.83438   0.17743   0.07977
N     2.87303   0.01000  -0.32482
H    -2.89188   0.33813  -0.85424
H    -3.48111   0.25846   0.84665
H    -2.78287  -1.20544   0.06141
