51
Generated by autodE on: 2022-05-31. E = -1162.766003 Ha
C    -0.75008   3.08156   3.46959
N    -0.20333   1.75101   3.60910
C    -0.51743   0.73889   2.79153
O    -1.39445   0.80220   1.92311
C     0.38448  -0.51957   2.96868
C    -0.41034  -1.80856   2.72500
C    -1.74328  -1.92680   3.14807
C    -2.42991  -3.13670   3.02445
C    -1.79329  -4.25540   2.47741
C    -0.46424  -4.15113   2.05855
C     0.21921  -2.93793   2.18299
C     1.60319  -0.40070   2.04463
C     2.75088  -0.57086   2.72228
C     2.43678  -0.85849   4.16353
N     1.03772  -0.48411   4.29829
C     0.33859  -1.06503   5.42454
C     4.17544  -0.45691   2.23016
C     5.14928  -1.25015   3.10935
C     4.60776   1.02509   2.14035
C     4.01507   1.87505   1.00469
C     2.52897   2.27862   1.11543
C     1.51478   1.46106   0.30800
C     1.48812  -0.03343   0.59185
F     0.33839  -0.56971   0.05355
F     2.50529  -0.64154  -0.12568
H    -0.17355   3.68316   2.74516
H    -0.73294   3.59535   4.44025
H    -1.78795   3.02110   3.11486
H     0.56259   1.54736   4.25041
H    -2.25577  -1.06623   3.58033
H    -3.46841  -3.20523   3.35765
H    -2.33060  -5.20158   2.37793
H     0.04527  -5.01708   1.62873
H     1.25425  -2.86613   1.84557
H     2.62063  -1.93271   4.38414
H     3.06959  -0.28327   4.86130
H     0.25027  -2.16866   5.37201
H    -0.67346  -0.64348   5.50790
H     0.88265  -0.81475   6.34880
H     4.22442  -0.87426   1.21712
H     4.84120  -2.30262   3.20676
H     6.15663  -1.23347   2.66576
H     5.22598  -0.82313   4.12180
H     4.40511   1.51580   3.10939
H     5.70423   1.03100   2.01991
H     4.19659   1.37416   0.03861
H     4.61001   2.80199   0.97366
H     2.22505   2.28517   2.17435
H     2.42076   3.31790   0.76809
H     0.50266   1.84028   0.50810
H     1.69350   1.56738  -0.77460
