28
Generated by autodE on: 2022-05-31. E = -612.582413 Ha
C     1.08331  -2.45519   0.73848
N    -0.12906  -1.93599   0.64457
C    -1.24453  -2.85459   0.97178
C    -0.39165  -0.64091   0.25605
C    -1.71730  -0.06128   0.25796
O    -2.77154  -0.61596   0.65396
N    -1.79187   1.22618  -0.21683
C    -3.06463   1.89173  -0.37041
C     0.78489   0.18000  -0.14379
C     1.38133   1.07379   0.76235
C     2.47458   1.85692   0.38055
C     2.99366   1.75087  -0.91342
C     2.41368   0.86121  -1.82460
C     1.31866   0.08297  -1.44178
H     1.95531  -1.84055   0.53067
H     1.18085  -3.49956   1.02194
H    -1.76453  -2.49875   1.86594
H    -1.95595  -2.87841   0.14122
H    -0.82559  -3.85065   1.14473
H    -0.97523   1.63960  -0.64970
H    -2.88770   2.92982  -0.68160
H    -3.62552   1.90501   0.57720
H    -3.71009   1.40884  -1.12682
H     0.97324   1.15677   1.77262
H     2.92236   2.55188   1.09518
H     3.84786   2.36288  -1.21321
H     2.81265   0.77850  -2.83859
H     0.86202  -0.60925  -2.15373
