51
Generated by autodE on: 2022-05-31. E = -1162.641347 Ha. Imaginary frequency = -56.5 cm-1
C    -1.13820   2.80618   2.78608
N    -0.43259   1.64703   3.29393
C    -0.98621   0.40273   3.15336
O    -2.15136   0.29628   2.71862
C    -0.19856  -0.78951   3.48062
C    -0.70459  -2.09215   2.97159
C    -0.99822  -3.14262   3.86535
C    -1.51566  -4.35516   3.41038
C    -1.76164  -4.55041   2.04580
C    -1.48163  -3.51659   1.14799
C    -0.95426  -2.30537   1.60401
C     1.87436  -0.20441   1.68275
C     2.89813  -0.54927   2.27003
C     1.74293  -1.76946   4.41640
N     0.82391  -0.81639   4.39896
C     1.05071   0.28836   5.35257
C     4.35449  -0.63933   2.49160
C     4.81897  -1.15817   3.85248
C     4.99212   0.74433   2.17957
C     4.39210   1.51105   0.98862
C     3.12515   2.33561   1.33632
C     1.85009   2.03644   0.54325
C     1.37833   0.57744   0.54396
F     0.00155   0.56087   0.41245
F     1.82323  -0.04208  -0.61867
H    -1.32623   2.73552   1.70038
H    -0.53505   3.70233   2.98267
H    -2.11118   2.92419   3.28576
H     0.57858   1.71232   3.30932
H    -0.81577  -3.00663   4.93402
H    -1.73725  -5.15045   4.12672
H    -2.16727  -5.49981   1.68813
H    -1.66574  -3.65485   0.07943
H    -0.72977  -1.50973   0.89488
H     1.67222  -2.59797   3.71867
H     2.42772  -1.80965   5.25831
H     1.50788  -0.13239   6.25511
H     0.10377   0.76770   5.61136
H     1.74338   1.02183   4.91748
H     4.71313  -1.34526   1.71971
H     4.48050  -2.18878   4.02927
H     5.91935  -1.14769   3.89473
H     4.43712  -0.52216   4.66559
H     4.92207   1.37336   3.08392
H     6.06602   0.56472   2.00968
H     4.18336   0.80641   0.16668
H     5.16432   2.19449   0.60279
H     2.89540   2.21730   2.40727
H     3.33665   3.40780   1.19950
H     1.02851   2.64200   0.95093
H     1.96144   2.31451  -0.51691
