58
Generated by autodE on: 2022-06-07. E = -1574.027038 Ha
C     3.82955  -0.29960   2.59582
N     3.01197  -0.35764   1.39996
C     3.00969   0.64545   0.51848
O     3.75694   1.62136   0.57221
C     1.97609   0.49425  -0.64472
C     2.80976   0.73550  -1.92869
C     3.22839  -0.48372  -2.69068
O     3.16824   1.85727  -2.22653
O     1.46679  -0.82462  -0.67587
C     0.07794  -0.95645  -0.50936
C    -0.47138  -1.64113  -1.79019
O     0.23957  -1.98283  -2.70868
O    -1.77804  -1.83456  -1.75262
C    -2.37857  -2.46427  -2.89794
C    -0.10420  -1.93821   0.68260
O     0.81936  -2.25550   1.40385
O    -1.33384  -2.38386   0.82004
C    -1.61594  -3.18866   1.97963
C    -0.51297   0.50133  -0.19590
C    -1.13606   0.50458   1.19805
C    -2.52530   0.34024   1.33428
C    -3.11992   0.22310   2.59097
C    -2.33548   0.26338   3.74751
C    -0.95195   0.40540   3.62758
C    -0.35789   0.51804   2.36686
C    -1.45396   1.05514  -1.31656
C    -1.97016   2.45991  -0.92808
C    -0.71371   3.35751  -1.06188
C     0.36219   2.37588  -1.55993
C    -0.45513   1.41604  -2.43465
C     0.75917   1.45040  -0.39765
F     1.02383   2.22023   0.72826
H     4.89891  -0.23272   2.34242
H     3.57157   0.57608   3.21352
H     3.66015  -1.21065   3.18288
H     2.31111  -1.09710   1.30444
H     3.74391  -1.18230  -2.01175
H     3.89374  -0.18909  -3.51192
H     2.34475  -1.01628  -3.06981
H    -2.21336  -1.85149  -3.79515
H    -3.44815  -2.53421  -2.67234
H    -1.94982  -3.46484  -3.04740
H    -1.04534  -4.12652   1.93629
H    -1.35600  -2.63310   2.89084
H    -2.69177  -3.39040   1.94567
H    -3.15559   0.27476   0.44795
H    -4.20213   0.09296   2.66458
H    -2.79876   0.17291   4.73276
H    -0.32115   0.42203   4.51942
H     0.72457   0.59151   2.30530
H    -2.25367   0.36405  -1.58807
H    -2.75018   2.75421  -1.64518
H    -2.41500   2.49981   0.07198
H    -0.42625   3.83981  -0.11939
H    -0.85591   4.14849  -1.81174
H     1.22704   2.85975  -2.01667
H     0.12055   0.57145  -2.83521
H    -0.93828   1.92672  -3.27937
