31
Generated by autodE on: 2022-06-07. E = -970.627812 Ha
C     3.59333  -2.33272   0.47528
N     2.79834  -1.43089  -0.33301
C     1.70898  -0.82822   0.16357
O     1.26305  -1.03859   1.30335
C     1.07697   0.19997  -0.70086
O    -0.08248   0.71271  -0.36110
C    -1.05426   0.33240   0.41521
C    -2.09980   1.34255   0.64838
O    -3.11880   1.11785   1.27659
O    -1.79729   2.52285   0.10112
C    -2.77173   3.56549   0.25510
C    -1.24356  -1.07034   0.86835
O    -1.73348  -1.38588   1.93063
O    -0.91356  -1.92143  -0.10422
C    -0.93791  -3.31937   0.22390
C     1.73882   0.94608  -1.77755
C     1.03160   2.15608  -2.32499
O     2.81718   0.55843  -2.23530
H     4.31934  -2.84135  -0.17043
H     4.13870  -1.79844   1.27142
H     2.94800  -3.08459   0.95237
H     3.16750  -1.04830  -1.20580
H    -2.35537   4.44195  -0.25390
H    -2.93337   3.78370   1.32060
H    -3.72498   3.27186  -0.20773
H    -0.57941  -3.84344  -0.66899
H    -1.96071  -3.63769   0.46993
H    -0.27188  -3.51520   1.07605
H     0.72819   2.83813  -1.51701
H     1.69803   2.66783  -3.03027
H     0.11190   1.84665  -2.84748
