27
Generated by autodE on: 2022-06-07. E = -603.306029 Ha
F    -0.91099  -1.88136  -1.30741
C    -1.19728  -0.64746  -0.86142
C    -0.34762   0.23087  -0.28672
C     1.07585   0.10042   0.02168
C     1.86641  -0.92952  -0.53699
C     3.22106  -1.03979  -0.22657
C     3.82598  -0.13144   0.65071
C     3.05730   0.89193   1.21240
C     1.70090   1.00901   0.90099
C    -1.26827   1.35395   0.20623
C    -2.05426   0.77985   1.42766
C    -2.98625  -0.28088   0.77083
C    -2.62053  -0.17234  -0.74871
C    -2.37112   1.34421  -0.87313
H     1.41214  -1.64342  -1.22423
H     3.81188  -1.84261  -0.67477
H     4.88770  -0.22114   0.89210
H     3.51585   1.60746   1.89948
H     1.11724   1.81323   1.35142
H    -0.77260   2.31396   0.39325
H    -2.63661   1.57542   1.91624
H    -1.37527   0.35002   2.17774
H    -4.04799  -0.03247   0.91705
H    -2.82158  -1.29828   1.15310
H    -3.33223  -0.64632  -1.43599
H    -3.24906   1.94954  -0.60003
H    -2.00495   1.64037  -1.86683
