55
Generated by autodE on: 2022-06-22. E = -1099.664594 Ha
C     2.20654   0.40465   3.89839
N     1.55171   0.49318   2.61038
C     1.87352  -0.31986   1.59375
O     2.79686  -1.13834   1.66675
C     1.08065  -0.06176   0.27798
C     2.07266   0.70846  -0.60038
C     1.86256   2.06262  -0.89240
C     2.77450   2.77512  -1.67847
C     3.91791   2.14707  -2.17633
C     4.14789   0.80178  -1.86911
C     3.23863   0.09122  -1.08325
O    -0.02634   0.78805   0.56137
C    -1.29304   0.09885   0.66649
C    -1.83968   0.38777   2.07213
C    -2.26948   0.72960  -0.33794
C    -3.64132   0.42629  -0.27883
C    -4.55046   1.01467  -1.16013
C    -4.11207   1.93635  -2.11643
C    -2.75558   2.26210  -2.17273
C    -1.84729   1.66687  -1.29045
C    -0.94182  -1.42571   0.39852
C    -2.01699  -2.18137  -0.39232
C    -0.76818  -2.19861   1.72076
C     0.42705  -1.33333  -0.38958
C     0.20269  -1.05823  -1.88881
C     1.23175  -2.63639  -0.30695
H     1.83237   1.20802   4.54494
H     3.29738   0.51090   3.79289
H     2.00729  -0.56406   4.38619
H     0.76036   1.11264   2.47386
H     0.98402   2.56573  -0.49336
H     2.58758   3.82949  -1.89654
H     4.62994   2.70196  -2.79185
H     5.04382   0.29940  -2.24182
H     3.44450  -0.94935  -0.83840
H    -1.13369   0.07893   2.85058
H    -2.79036  -0.13246   2.24751
H    -2.01725   1.46877   2.17275
H    -4.01233  -0.28432   0.45994
H    -5.60944   0.75258  -1.09539
H    -4.82280   2.39903  -2.80538
H    -2.39443   2.98697  -2.90660
H    -0.79487   1.93412  -1.34758
H    -2.29905  -1.69042  -1.32980
H    -1.65554  -3.19349  -0.63073
H    -2.92791  -2.29542   0.21321
H    -1.70554  -2.19298   2.29329
H     0.02107  -1.79777   2.36990
H    -0.52746  -3.24944   1.51221
H    -0.32052  -1.90479  -2.35290
H    -0.38137  -0.15131  -2.07839
H     1.16613  -0.95143  -2.40433
H     2.12822  -2.57868  -0.94025
H     1.55230  -2.89535   0.70495
H     0.61439  -3.45865  -0.70102
