18
Generated by autodE on: 2022-06-22. E = -235.968070 Ha
C    -1.76175  -0.88330  -0.04614
C    -0.64633   0.11143   0.16847
C    -1.14871   1.38504   0.80504
C     0.64630  -0.11142  -0.16849
C     1.14871  -1.38503  -0.80503
C     1.76176   0.88329   0.04615
H    -2.55119  -0.44291  -0.68138
H    -2.24849  -1.12743   0.91527
H    -1.44558  -1.82510  -0.51026
H    -0.37444   2.14295   0.97358
H    -1.62426   1.16608   1.77807
H    -1.93674   1.84136   0.17939
H     1.93751  -1.84072  -0.17990
H     0.37465  -2.14338  -0.97257
H     1.62333  -1.16622  -1.77856
H     1.44537   1.82568   0.50892
H     2.24951   1.12623  -0.91504
H     2.55046   0.44338   0.68266
