55
Generated by autodE on: 2022-06-22. E = -1099.574713 Ha. Imaginary frequency = -295.6 cm-1
C     1.74724   0.97207   4.10525
N     1.43413   1.15834   2.70279
C     1.89411   0.30390   1.75451
O     2.82077  -0.48801   2.00646
C     1.30122   0.45186   0.40224
C     2.16196   0.87110  -0.69852
C     1.61652   1.45622  -1.86685
C     2.42960   1.84089  -2.93118
C     3.81474   1.64585  -2.88058
C     4.37020   1.06195  -1.73668
C     3.56513   0.68275  -0.66314
O     0.02232   0.90355   0.29247
C    -1.09173   0.35638   0.78612
C    -1.09956  -0.25470   2.14879
C    -2.30803   0.94805   0.23095
C    -3.58549   0.56748   0.70083
C    -4.74585   1.07668   0.11675
C    -4.66835   1.98877  -0.93981
C    -3.40966   2.39537  -1.40023
C    -2.24834   1.88760  -0.82480
C    -0.86073  -1.70111  -0.50351
C    -1.37966  -1.18124  -1.82420
C    -1.87464  -2.51907   0.26104
C     0.50640  -1.95146  -0.36042
C     1.41286  -1.90184  -1.56191
C     1.03208  -2.82656   0.74851
H     1.36487   0.00766   4.48246
H     1.28707   1.78288   4.68354
H     2.83432   0.99321   4.27331
H     0.67568   1.78527   2.46225
H     0.54040   1.60189  -1.94052
H     1.97253   2.29265  -3.81547
H     4.44926   1.94018  -3.71958
H     5.44931   0.89783  -1.67621
H     4.01831   0.22293   0.21354
H    -0.23197  -0.90044   2.31742
H    -2.00343  -0.85104   2.30130
H    -1.09175   0.53214   2.92313
H    -3.67957  -0.13518   1.52768
H    -5.71998   0.75914   0.49621
H    -5.57826   2.38815  -1.39336
H    -3.33306   3.12037  -2.21422
H    -1.27847   2.22638  -1.18390
H    -0.82907  -0.29894  -2.17871
H    -1.29023  -1.95735  -2.60718
H    -2.44240  -0.91003  -1.75562
H    -2.83253  -1.98908   0.37173
H    -1.53508  -2.83687   1.25323
H    -2.09010  -3.43898  -0.31574
H     1.29431  -2.84782  -2.12678
H     1.18798  -1.08433  -2.25559
H     2.47142  -1.82386  -1.27763
H     2.09207  -2.61826   0.94245
H     0.48962  -2.71314   1.69529
H     0.95099  -3.89050   0.45244
