44
Generated by autodE on: 2022-10-22. E = -959.511066 Ha
C    -4.47149  -0.94827   0.33515
C    -3.32047  -0.70556   0.97612
C    -3.24439   0.03032   2.28513
C    -2.00588  -1.14162   0.36840
N    -1.18648  -1.88578   1.35350
N    -0.04219  -1.44824   1.48636
C     0.22645  -0.24393   0.61346
C     0.56715   0.88740   1.59603
O    -0.07662   1.90543   1.73852
O     1.65892   0.60291   2.29763
C     2.08767   1.57887   3.26191
C     1.40581  -0.52686  -0.30138
C     1.66776  -1.82731  -0.74838
C     2.69119  -2.06545  -1.67124
C     3.45925  -1.00565  -2.15980
C     3.19834   0.29650  -1.71959
C     2.17847   0.53335  -0.79678
C    -1.11461   0.01627  -0.14032
C    -1.02560   0.06296  -1.63964
C    -0.85498   1.16190  -2.39538
C    -0.75460   1.06109  -3.89350
C    -0.70275   2.55299  -1.84403
H    -5.42810  -0.59836   0.73469
H    -4.49130  -1.49715  -0.61101
H    -2.55215   0.88597   2.22646
H    -4.23194   0.39870   2.59691
H    -2.85501  -0.63069   3.07778
H    -2.21248  -1.86305  -0.43628
H     1.30305   1.74188   4.01427
H     2.98631   1.16270   3.73075
H     2.32192   2.52900   2.76112
H     1.06689  -2.66190  -0.38463
H     2.88503  -3.08587  -2.01007
H     4.25756  -1.19170  -2.88198
H     3.78969   1.13330  -2.09849
H     1.97483   1.55726  -0.47506
H    -1.50777   0.96681   0.23318
H    -1.07424  -0.90720  -2.14662
H    -0.88539   0.02824  -4.24869
H    -1.51155   1.69844  -4.38369
H     0.22863   1.42521  -4.24102
H    -1.46904   3.22603  -2.26683
H     0.27401   2.96939  -2.14697
H    -0.76036   2.60010  -0.74963
