23
Generated by autodE on: 2022-10-22. E = -351.521385 Ha
C     3.60814   0.18374   1.11575
C     2.35598   0.62493   0.86441
C     1.96117   2.05505   1.13088
C     1.35416  -0.29157   0.32353
C     0.06868   0.02600   0.02769
C    -0.88471  -0.92417  -0.50818
C    -2.18176  -0.68740  -0.82941
C    -3.04955  -1.78313  -1.38084
C    -2.86528   0.64169  -0.67630
H     3.89191  -0.85522   0.92142
H     4.37704   0.84772   1.52051
H     2.80477   2.63243   1.53465
H     1.12766   2.10951   1.85080
H     1.61247   2.54946   0.20897
H     1.69139  -1.32044   0.14903
H    -0.27528   1.04982   0.19827
H    -0.50251  -1.93990  -0.66655
H    -3.93114  -1.94676  -0.73519
H    -2.50699  -2.73508  -1.47681
H    -3.44672  -1.50549  -2.37383
H    -3.24963   0.98810  -1.65201
H    -2.21755   1.42695  -0.26586
H    -3.74668   0.54418  -0.01810
