21
Generated by autodE on: 2022-10-22. E = -607.966306 Ha
C     3.96185  -0.14923   0.80890
O     2.79454   0.20102   0.05479
C     1.61081  -0.19499   0.55522
O     1.50431  -0.82334   1.59396
C     0.49299   0.22292  -0.29888
N     0.84112   0.90550  -1.37214
N     1.12060   1.49238  -2.29786
C    -0.94470  -0.03256  -0.07949
C    -1.90558   0.50151  -0.96320
C    -3.26525   0.26234  -0.76930
C    -3.70267  -0.51293   0.30946
C    -2.75791  -1.04464   1.19064
C    -1.39331  -0.81220   1.00491
H     4.05370  -1.24170   0.89549
H     3.92125   0.29467   1.81422
H     4.81278   0.25796   0.25059
H    -1.59540   1.11290  -1.81280
H    -3.98786   0.68833  -1.46933
H    -4.76822  -0.69954   0.46038
H    -3.08146  -1.65302   2.03877
H    -0.67065  -1.23323   1.69938
