44
Generated by autodE on: 2022-10-22. E = -959.461714 Ha. Imaginary frequency = -436.8 cm-1
C    -3.93470  -1.68809   1.98128
C    -2.93623  -0.81602   1.74306
C    -2.58453   0.26876   2.72523
C    -2.12587  -0.94367   0.50923
N    -0.70701  -2.13711   1.22922
N     0.32491  -1.58954   1.13540
C     0.73823  -0.37976   0.59954
C     0.95276   0.67930   1.60300
O     1.17870   1.84983   1.34103
O     0.81315   0.23438   2.86184
C     0.87746   1.22081   3.90174
C     1.48738  -0.44748  -0.66341
C     1.44306  -1.62217  -1.44379
C     2.04651  -1.67143  -2.69819
C     2.71016  -0.55042  -3.21035
C     2.76532   0.61577  -2.44412
C     2.16242   0.67219  -1.18600
C    -1.44822   0.15314  -0.08248
C    -1.26694   0.19809  -1.51819
C    -0.87694   1.26079  -2.26553
C    -0.72167   1.13072  -3.75297
C    -0.58909   2.62529  -1.70693
H    -4.54044  -1.62471   2.88973
H    -4.17391  -2.48648   1.27203
H    -3.26216   0.25419   3.59044
H    -2.63542   1.26902   2.26523
H    -1.55389   0.13802   3.08636
H    -2.49283  -1.70333  -0.18821
H     0.72022   0.67702   4.84018
H     0.09239   1.97805   3.76455
H     1.86230   1.70935   3.90644
H     0.92551  -2.50706  -1.07001
H     1.99621  -2.59356  -3.28193
H     3.17830  -0.58833  -4.19643
H     3.27743   1.50071  -2.82925
H     2.19999   1.59380  -0.61105
H    -1.40630   1.09400   0.46575
H    -1.44743  -0.74657  -2.04303
H    -0.98417   0.12448  -4.11066
H    -1.35008   1.86841  -4.28367
H     0.32086   1.34186  -4.05066
H    -1.36172   3.34305  -2.03802
H     0.37018   3.00340  -2.09664
H    -0.54095   2.64762  -0.61168
