24
Generated by autodE on: 2022-10-06. E = -779.947580 Ha
C     3.05049   1.19310  -0.62590
C     2.25713   0.10932   0.04423
O     2.70638  -0.53551   0.98244
C     0.89365  -0.28084  -0.53288
C     1.06467  -1.68113  -1.14817
N     0.44895   0.64083  -1.59756
C    -0.78036   0.92118  -1.39989
C    -1.44077   0.28346  -0.20945
C    -2.51917  -0.73235  -0.70782
O    -3.47414  -0.21338  -1.33997
O    -2.35661  -1.95282  -0.46450
C    -0.22474  -0.27504   0.55855
C     0.08230   0.65106   1.74927
O     0.68183   1.73344   1.49046
O    -0.32217   0.28966   2.88332
H     3.99751   1.34826  -0.09167
H     3.25222   0.91174  -1.67179
H     2.46529   2.12246  -0.65015
H     1.76893  -1.65726  -1.99424
H     1.44892  -2.37547  -0.38747
H     0.09251  -2.04960  -1.50331
H    -1.33887   1.55939  -2.09628
H    -1.99991   1.04150   0.36403
H    -0.43860  -1.28416   0.92687
