14
Generated by autodE on: 2022-10-06. E = -324.801974 Ha
C    -0.76313   2.37090   0.46056
N    -0.69046   1.20867   0.14167
C    -0.57179  -0.06746  -0.05191
C    -1.77548  -0.94352  -0.24545
C     0.77333  -0.65070  -0.07325
C     1.95445   0.26220   0.14255
O     0.90831  -1.86188  -0.26444
H    -0.76540   3.22237  -0.23630
H    -2.70172  -0.35613  -0.19112
H    -1.73445  -1.44925  -1.22378
H    -1.80733  -1.72974   0.52652
H     2.01905   1.00642  -0.66778
H     2.87540  -0.33422   0.16497
H     1.85066   0.82301   1.08572
