10
Generated by autodE on: 2022-10-06. E = -455.051702 Ha
O     2.75626   0.03869  -1.10994
C     1.93694  -0.31688  -0.21707
O     2.20797  -1.01344   0.79940
C     0.50735   0.14583  -0.41268
C    -0.50731  -0.14574   0.41274
C    -1.93690   0.31703   0.21717
O    -2.75629  -0.03875   1.10989
O    -2.20800   1.01332  -0.79948
H     0.31402   0.75649  -1.30110
H    -0.31398  -0.75639   1.30117
