24
Generated by autodE on: 2022-10-06. E = -779.857494 Ha. Imaginary frequency = -319.0 cm-1
C     2.50268   1.45893  -0.29810
C     2.32319  -0.03669  -0.20700
O     3.07820  -0.73886   0.47715
C     1.21466  -0.64301  -0.93566
C     1.08118  -2.13367  -1.03817
N     0.46271   0.12538  -1.70629
C    -0.54994   0.76246  -1.85163
C    -1.61389   0.45586   0.11834
C    -2.69265  -0.32869  -0.60610
O    -3.70695   0.32478  -0.97350
O    -2.50566  -1.56434  -0.79842
C    -0.68196  -0.13141   0.93619
C     0.15229   0.63629   1.92027
O     0.06745   1.90294   1.92086
O     0.89304  -0.03881   2.69241
H     3.32752   1.76251   0.35958
H     2.72897   1.75849  -1.33399
H     1.58249   1.97870   0.00819
H     1.70227  -2.54855  -1.85164
H     1.42122  -2.58361  -0.09555
H     0.03340  -2.41174  -1.21609
H    -0.97169   1.33105  -2.68641
H    -1.79831   1.52762   0.23222
H    -0.62976  -1.21979   0.99700
