46
Generated by autodE on: 2022-06-19. E = -885.755997 Ha
C     0.65533  -3.32710   0.56778
N     1.14506  -1.98318   0.36023
C     1.06940  -1.32946  -0.80376
O     0.70007  -1.84199  -1.87278
C     1.54028   0.14237  -0.76584
C     2.80433   0.21515  -1.63083
C     0.42755   1.07797  -1.27932
C    -0.27790   1.62020  -0.02458
C    -0.99863   2.94584  -0.31529
C    -1.27976   0.66656   0.59237
C    -1.79089  -0.45110   0.04518
C    -2.75077  -1.31477   0.71535
C    -3.19018  -2.52017   0.28031
C    -2.73135  -3.18296  -0.98940
C    -4.19026  -3.31004   1.07769
C     0.94391   1.73548   0.96119
C     1.66924   3.07240   0.82633
C     1.23476   4.17475   1.74958
O     2.59441   3.21853   0.04144
N     1.79214   0.59199   0.62211
H     0.61184  -3.84991  -0.39597
H     1.32743  -3.87955   1.24071
H    -0.35455  -3.32445   1.01034
H     1.36592  -1.37562   1.14941
H     3.18152   1.24677  -1.65371
H     2.58237  -0.11070  -2.65669
H     3.59106  -0.44052  -1.22404
H     0.89096   1.92066  -1.81185
H    -0.25351   0.58300  -1.98224
H    -0.31226   3.71093  -0.71101
H    -1.77898   2.77095  -1.07134
H    -1.48949   3.34751   0.58378
H    -1.61710   0.95999   1.59482
H    -1.46914  -0.75262  -0.95259
H    -3.13762  -0.94661   1.67325
H    -3.57820  -3.30647  -1.68793
H    -2.36367  -4.20063  -0.77043
H    -1.92930  -2.64346  -1.50794
H    -4.50858  -2.77994   1.98751
H    -3.77064  -4.28862   1.37261
H    -5.08696  -3.53252   0.47179
H     0.58210   1.67054   1.99975
H     1.72461   3.99545   2.72352
H     0.15162   4.16209   1.93200
H     1.55859   5.15151   1.36629
H     2.77400   0.83059   0.74179
