23
Generated by autodE on: 2022-06-19. E = -351.521385 Ha
C     3.69134  -0.66790   0.47593
C     2.56985   0.06100   0.28430
C     2.62282   1.56232   0.16099
C     1.27246  -0.60588   0.19420
C     0.07803   0.00920   0.00485
C    -1.18164  -0.70187  -0.07548
C    -2.41383  -0.16349  -0.25851
C    -3.63382  -1.03859  -0.31869
C    -2.68412   1.30635  -0.41229
H     4.67462  -0.19477   0.54785
H     3.64966  -1.75786   0.56532
H     3.65403   1.93267   0.24737
H     2.21468   1.89631  -0.80744
H     2.01399   2.04691   0.94234
H     1.28780  -1.69818   0.29094
H     0.05435   1.09800  -0.09224
H    -1.11679  -1.79213   0.02486
H    -3.38784  -2.10404  -0.20007
H    -4.16317  -0.90678  -1.27955
H    -4.35655  -0.75706   0.46824
H    -3.19809   1.50205  -1.36994
H    -1.78069   1.92852  -0.37593
H    -3.37195   1.65266   0.37941
