23
Generated by autodE on: 2022-06-19. E = -534.192202 Ha
C     4.20529   0.15011  -0.13905
N     2.97178  -0.56215   0.12583
C     1.77319   0.02551  -0.04624
O     1.66591   1.20311  -0.44084
C     0.56163  -0.77427   0.24868
C     0.49481  -2.18236   0.72200
N    -0.55361  -0.10219   0.04631
C    -1.85230  -0.44040   0.18597
C    -2.80631   0.57242  -0.13287
C    -4.27058   0.23439   0.01165
O    -2.45685   1.71061  -0.52072
H     4.29652   1.04328   0.49960
H     5.05088  -0.51772   0.06455
H     4.25841   0.48049  -1.18869
H     3.02186  -1.51996   0.45060
H     1.48172  -2.64003   0.85728
H    -0.07252  -2.80284   0.00525
H    -0.04226  -2.23946   1.68570
H    -0.40596   0.86767  -0.28149
H    -2.11520  -1.43908   0.52534
H    -4.77616   0.39008  -0.95554
H    -4.43988  -0.79817   0.34686
H    -4.73373   0.92954   0.73127
