46
Generated by autodE on: 2022-06-19. E = -885.696522 Ha. Imaginary frequency = -371.5 cm-1
C    -1.43369   3.92154   2.71042
N    -0.45907   3.75275   1.65073
C    -0.57617   2.75643   0.74863
O    -1.54373   1.98022   0.77976
C     0.53910   2.63347  -0.25364
C     1.47508   3.80343  -0.43004
C     1.61698   1.16607   0.79789
C     1.38039  -0.11520   0.25374
C     2.35865  -0.64569  -0.76408
C     0.43124  -0.99462   0.89683
C     0.28248  -2.33383   0.68504
C    -0.70964  -3.13600   1.36682
C    -0.94959  -4.46322   1.20566
C    -0.19701  -5.34664   0.25090
C    -2.02475  -5.15539   1.99537
C    -0.33210   0.74178  -1.47927
C    -0.04144  -0.07161  -2.62588
C    -0.72072  -1.41323  -2.68275
O     0.78688   0.28669  -3.48895
N     0.25898   1.95649  -1.40839
H    -1.49511   3.02100   3.34234
H    -1.13377   4.77222   3.33439
H    -2.43906   4.11687   2.30471
H     0.32441   4.39254   1.60495
H     2.22156   3.57126  -1.20345
H     2.02416   4.01625   0.49846
H     0.93672   4.71854  -0.72839
H     2.58392   1.62881   0.58289
H     1.22656   1.37579   1.79686
H     2.64543   0.14261  -1.47749
H     3.28495  -0.98979  -0.26907
H     1.96248  -1.49031  -1.34325
H    -0.23125  -0.51421   1.62687
H     0.94680  -2.83317  -0.02493
H    -1.33530  -2.59700   2.08933
H    -0.89526  -5.83409  -0.45283
H     0.30693  -6.16514   0.79579
H     0.56021  -4.81248  -0.33789
H    -2.54269  -4.46932   2.68201
H    -1.60472  -5.98850   2.58814
H    -2.77712  -5.60951   1.32485
H    -1.10641   0.49113  -0.76743
H    -0.36786  -1.98258  -3.55302
H    -0.51113  -1.97915  -1.75724
H    -1.81495  -1.29286  -2.73536
H     0.93122   2.09630  -2.16805
