14
Generated by autodE on: 2022-05-28. E = -324.819006 Ha
C    -3.29894   0.09380  -0.20814
C    -1.89643   0.38877  -0.02962
N    -0.77706   0.66203   0.12693
C     0.55399   0.82714   0.26915
C     1.39346  -0.28629   0.02015
C     2.88337  -0.06149   0.19218
O     0.97245  -1.41609  -0.32614
H    -3.51020  -0.18405  -1.25282
H    -3.87332   1.00092   0.04083
H    -3.61345  -0.71932   0.46501
H     0.90141   1.81391   0.57016
H     3.39553  -0.29357  -0.75624
H     3.13602   0.96431   0.49546
H     3.27027  -0.76631   0.94662
