21
Generated by autodE on: 2022-05-28. E = -499.581893 Ha
C    -2.71193  -0.88863   0.32610
C    -1.82333   0.33004   0.33911
O    -2.24665   1.42252   0.72293
C    -0.44633   0.13717  -0.11877
C     0.62498   0.95681   0.01161
C     0.79318   2.30117   0.60492
C     1.81564   0.12175  -0.51805
C     2.06546  -0.99585   0.51830
C     1.01658  -1.81456   0.39165
C     0.14264  -1.17293  -0.70895
O     1.16239  -0.61978  -1.56190
H    -2.23638  -1.71838   0.87456
H    -2.85709  -1.23434  -0.71090
H    -3.68571  -0.65110   0.77376
H     1.55205   2.25701   1.40666
H    -0.14749   2.69479   1.00561
H     1.18826   3.00253  -0.15085
H     2.68300   0.68506  -0.87978
H     2.89953  -1.02705   1.21834
H     0.75658  -2.70832   0.95800
H    -0.54064  -1.82809  -1.25801
