40
Generated by autodE on: 2022-06-21. E = -1159.893431 Ha
C     4.66583  -0.72008  -1.06196
N     3.43229  -0.37088  -0.38271
C     2.28322  -0.23301  -1.05289
O     2.17682  -0.29131  -2.27889
C     1.03219   0.01345  -0.22124
O     0.39340   1.23111  -0.63045
C    -0.65536   1.18209   0.30012
C    -1.46748   2.47948   0.39970
C    -1.02839   3.62601  -0.45307
O    -2.32857   2.54868   1.25466
O     0.04099   1.00936   1.57347
C     1.12493   0.25456   1.28326
O     1.93130  -0.11645   2.09614
C    -1.38150  -0.15808  -0.02088
C    -2.31726   0.10860  -1.20592
N    -2.77087  -0.96810  -1.85990
O    -2.63461   1.26245  -1.51054
C    -2.18696  -0.70800   1.18513
C    -1.40347  -1.65661   2.04466
C    -0.41734  -2.40410   1.52531
N    -0.01341  -2.30811   0.19156
C     1.14113  -3.09906  -0.21251
C    -0.14583  -1.02867  -0.45418
H     5.49371  -0.66633  -0.34500
H     4.86166  -0.02291  -1.88927
H     4.61713  -1.74049  -1.47690
H     3.39677  -0.39056   0.63487
H    -0.88393   3.31581  -1.49580
H    -1.76146   4.43963  -0.38263
H    -0.05315   3.97774  -0.07389
H    -2.52298  -1.91137  -1.58074
H    -3.42082  -0.84248  -2.63061
H    -2.56371   0.14699   1.76221
H    -3.08095  -1.22618   0.79649
H    -1.68943  -1.78479   3.08950
H     0.11436  -3.15203   2.11877
H     0.97986  -4.15373   0.05162
H     2.07805  -2.76449   0.26762
H     1.26781  -3.03481  -1.30215
H    -0.14849  -1.17078  -1.54237
