20
Generated by autodE on: 2022-06-21. E = -457.715302 Ha
C    -3.04052  -0.18871  -0.91107
N    -1.81587   0.11967  -0.19126
C    -1.88195   0.86241   0.99429
C    -0.79504   1.16356   1.72234
C     0.59880   0.72816   1.34232
C     0.57334  -0.05354   0.03886
C     1.81030  -0.57299  -0.56501
N     2.95589  -0.32698   0.11944
O     1.83960  -1.20168  -1.64285
C    -0.59393  -0.30299  -0.61960
H    -2.79528  -0.75005  -1.82119
H    -3.72055  -0.79945  -0.29475
H    -3.57074   0.73319  -1.19973
H    -2.88582   1.18151   1.28050
H    -0.92684   1.75115   2.63380
H     1.04443   0.12400   2.15961
H     1.26375   1.61202   1.26004
H     3.82990  -0.67916  -0.25545
H     2.96962   0.16025   1.00626
H    -0.58244  -0.87151  -1.55089
