20
Generated by autodE on: 2022-06-21. E = -702.138852 Ha
C    -4.20689  -0.89542   0.76574
N    -2.94157  -0.23588   0.52143
C    -1.77947  -0.90533   0.34788
O    -1.66430  -2.13702   0.37426
C    -0.61987  -0.04394   0.11525
O     0.60620  -0.63980  -0.08002
C     1.49226   0.28308  -0.27014
C     2.93682  -0.01201  -0.51861
C     3.32490  -1.45379  -0.54331
O     3.68254   0.93361  -0.68213
O     0.99291   1.47567  -0.22471
C    -0.46366   1.34740   0.03653
O    -1.15801   2.33231   0.12240
H    -4.95357  -0.60285   0.01114
H    -4.05773  -1.98014   0.71324
H    -4.60396  -0.64138   1.76177
H    -2.92233   0.78020   0.48655
H     3.06188  -1.92970   0.41545
H     4.40265  -1.53764  -0.72755
H     2.76036  -1.97907  -1.33103
