43
Generated by autodE on: 2022-06-04. E = -2395.446397 Ha
C     2.45313   3.72711   1.42901
O     1.95396   2.68473   0.57528
C     0.63457   2.52570   0.52373
O    -0.15601   3.23925   1.10036
C     0.27086   1.32863  -0.36258
N    -1.12134   1.28123  -0.72092
C    -1.67032   2.40032  -1.46116
C    -1.73405  -0.02413  -0.61532
C    -2.79347  -0.07908   0.55091
C    -3.20400   1.23291   1.15671
O    -3.31782  -1.12793   0.86178
C    -2.46143  -0.50070  -1.93036
C    -3.17444  -1.82314  -1.93410
O    -2.43927   0.20852  -2.91141
C    -0.47509  -0.93890  -0.38176
Cl    0.26244  -1.32557  -2.00789
Cl   -0.73239  -2.48906   0.44898
C     0.54353  -0.01173   0.35789
Cl   -0.09229   0.15451   2.08267
C     1.97266  -0.52132   0.40734
C     2.33372  -1.51267   1.33515
C     3.62500  -2.04108   1.35016
C     4.58373  -1.58483   0.44187
C     4.23655  -0.59640  -0.48132
C     2.94265  -0.07154  -0.50230
H     3.54512   3.68087   1.35197
H     2.13420   3.55173   2.46630
H     2.08604   4.70614   1.09015
H     0.92360   1.39716  -1.25104
H    -1.21099   2.51942  -2.45907
H    -1.51402   3.33070  -0.89511
H    -2.74909   2.27598  -1.59838
H    -3.82386   1.77084   0.41894
H    -2.34615   1.87363   1.38564
H    -3.81014   1.03521   2.05014
H    -3.31331  -2.13260  -2.97814
H    -4.16321  -1.69457  -1.46678
H    -2.64519  -2.59627  -1.36553
H     1.60574  -1.86901   2.06199
H     3.88132  -2.81024   2.08201
H     5.59663  -1.99360   0.45699
H     4.97510  -0.22533  -1.19527
H     2.70666   0.69341  -1.23880
