27
Generated by autodE on: 2022-07-27. E = -706.739802 Ha
C     2.60874   1.60256   2.84367
O     2.21186   1.72497   1.47036
C     1.37681   0.78842   1.00370
O     0.95497  -0.13540   1.67564
C     1.14061   1.02668  -0.43013
N     0.34371   0.30934  -1.19549
C     0.57772   0.42069  -2.65732
C    -0.71307  -0.44464  -0.70443
C    -1.50397   0.07629   0.41116
C    -1.56279   1.57092   0.68309
O    -2.23181  -0.65667   1.08678
C    -0.99297  -1.71760  -1.36507
C    -2.23390  -2.50054  -1.00846
O    -0.21907  -2.17382  -2.21831
H     3.24458   2.47036   3.05203
H     3.17255   0.67111   2.99821
H     1.72594   1.60811   3.49929
H     1.77441   1.76754  -0.91692
H    -0.34444   0.18645  -3.19451
H     1.37621  -0.26720  -2.95522
H     0.88199   1.45360  -2.86588
H    -1.07901   2.20932  -0.06647
H    -2.63181   1.82721   0.73812
H    -1.12979   1.78897   1.67139
H    -2.11029  -2.97588  -0.02398
H    -3.12780  -1.86510  -0.94605
H    -2.36897  -3.28018  -1.77065
