27
Generated by autodE on: 2022-06-04. E = -706.741628 Ha
C     4.04223   0.31576   0.33080
O     3.00396  -0.51830  -0.20715
C     1.82334   0.06272  -0.41095
O     1.59825   1.24326  -0.24383
C     0.87310  -0.91933  -0.99332
N    -0.42331  -0.79564  -0.95171
C    -1.21514  -1.66890  -1.84842
C    -1.07998  -0.05595   0.05940
C    -2.23791   0.74719  -0.26443
C    -2.53861   1.05123  -1.72250
O    -2.96931   1.25422   0.60154
C    -0.54202  -0.24804   1.39046
C    -1.33983   0.19906   2.59254
O     0.55861  -0.80096   1.58318
H     3.73707   0.71469   1.30894
H     4.92128  -0.32923   0.43919
H     4.25988   1.14742  -0.35446
H     1.29409  -1.73367  -1.58704
H    -0.71283  -2.64124  -1.92542
H    -2.21533  -1.80475  -1.42734
H    -1.27633  -1.21591  -2.84543
H    -1.64482   1.07418  -2.36011
H    -3.23416   0.29901  -2.12750
H    -3.04388   2.02593  -1.76407
H    -0.82093  -0.15204   3.49459
H    -2.37112  -0.17611   2.56819
H    -1.40515   1.29766   2.60988
