16
Generated by autodE on: 2022-06-04. E = -1688.667496 Ha
Cl    3.03413   0.08316  -0.03298
C     1.34736   0.34907   0.25387
Cl    1.01359   1.63053   1.37837
C     0.36868  -0.38538  -0.31522
Cl    0.81711  -1.72740  -1.34935
C    -1.08595  -0.17811  -0.14205
C    -1.91155  -1.25425   0.22813
C    -3.28431  -1.06460   0.38747
C    -3.85085   0.19537   0.16658
C    -3.03733   1.26548  -0.21769
C    -1.66211   1.08256  -0.37270
H    -1.47302  -2.24024   0.39289
H    -3.91492  -1.90563   0.68430
H    -4.92664   0.34111   0.28820
H    -3.47514   2.24857  -0.40480
H    -1.03253   1.91763  -0.68289
