43
Generated by autodE on: 2022-06-04. E = -2395.362038 Ha. Imaginary frequency = -352.6 cm-1
C     1.41516   2.91189   2.89905
O     1.33600   2.43828   1.54970
C     0.11274   2.13559   1.08804
O    -0.90256   2.29873   1.73784
C     0.23998   1.62342  -0.28345
N    -0.75464   1.30765  -1.15473
C    -0.43486   1.59568  -2.57802
C    -1.79105   0.48067  -0.78746
C    -2.60814   0.83184   0.46519
C    -3.34379   2.14478   0.33952
O    -2.81993   0.04936   1.36490
C    -2.62030  -0.21558  -1.81759
C    -3.82094  -0.98524  -1.32526
O    -2.32572  -0.23023  -3.00677
C    -0.28041  -1.26962  -0.24223
Cl    0.11536  -1.82855  -1.86567
Cl   -1.25265  -2.47901   0.58567
C     0.73481  -0.55755   0.45929
Cl    0.44516  -0.52328   2.21275
C     2.18934  -0.54397   0.08880
C     3.15415  -0.95843   1.02662
C     4.51247  -0.99321   0.70151
C     4.94706  -0.61419  -0.56911
C     4.00157  -0.19611  -1.51051
C     2.64567  -0.15729  -1.18780
H     2.47986   3.08164   3.09613
H     1.01630   2.15993   3.59460
H     0.85330   3.85043   3.01279
H     1.14102   1.99744  -0.76468
H    -0.07074   0.70825  -3.10264
H     0.32659   2.38173  -2.58828
H    -1.33630   1.96129  -3.07816
H    -4.18165   1.99073  -0.36283
H    -2.70924   2.93946  -0.07023
H    -3.74742   2.43593   1.31808
H    -4.24020  -1.54471  -2.17066
H    -4.58791  -0.30192  -0.92812
H    -3.54626  -1.67512  -0.51607
H     2.84273  -1.26344   2.02437
H     5.23184  -1.32211   1.45522
H     6.00932  -0.63605  -0.82253
H     4.31915   0.11617  -2.50806
H     1.94795   0.19352  -1.94345
