57
Generated by autodE on: 2022-06-05. E = -1544.924122 Ha
C    -3.89224   3.08599  -1.34475
N    -3.28392   1.77332  -1.26698
C    -1.93298   1.64249  -1.31570
O    -1.16912   2.55222  -1.67665
N    -1.44565   0.40049  -0.98406
C    -0.04655   0.08969  -0.72425
C     0.74903   1.12742   0.13884
O     0.38611   0.79132   1.47733
C     0.78842  -0.58257   1.41519
C     2.21046  -0.46081   0.86364
C     3.19407  -1.52886   1.05600
O     4.39687  -1.48075   0.85850
O     2.58222  -2.64415   1.50007
C     3.41023  -3.79067   1.72725
C     2.20341   0.64361   0.06219
C     3.16162   1.26036  -0.85061
C     4.55672   1.09530  -0.72006
C     5.43021   1.71344  -1.61364
C     4.93588   2.50107  -2.65880
C     3.55558   2.67791  -2.79824
C     2.67651   2.07522  -1.89971
C    -0.12045  -1.10056   0.27427
C    -1.64159  -1.20223   0.60047
C    -2.09298  -2.66454   0.87255
C    -3.51706  -2.86116   1.30770
O    -1.31151  -3.58336   0.75031
C    -2.00603  -0.39972   1.85812
O    -1.72921  -0.80599   2.97014
O    -2.65809   0.72504   1.61806
C    -2.94849   1.56465   2.74627
N    -2.31220  -0.64568  -0.59338
C    -2.48489  -1.60343  -1.69580
H    -3.71766   3.68883  -0.43543
H    -3.48828   3.64039  -2.20263
H    -4.97557   2.97263  -1.48407
H    -3.75610   1.04915  -0.73193
H     0.49473  -0.14931  -1.64944
H     0.55026   2.17831  -0.07298
H     0.67566  -1.08316   2.37890
H     4.17091  -3.57236   2.49102
H     3.90811  -4.09858   0.79621
H     2.73838  -4.58308   2.07690
H     4.94459   0.48046   0.08871
H     6.50773   1.58004  -1.49207
H     5.62421   2.98030  -3.35888
H     3.15990   3.29378  -3.60896
H     1.60416   2.23038  -2.02618
H     0.22914  -2.05259  -0.13420
H    -4.17835  -2.07268   0.92361
H    -3.54097  -2.80945   2.40902
H    -3.86774  -3.85533   1.00101
H    -3.47271   2.43703   2.34017
H    -2.01186   1.87155   3.23312
H    -3.58548   1.03338   3.46716
H    -3.22416  -2.36486  -1.41201
H    -2.88637  -1.05528  -2.55802
H    -1.54703  -2.10471  -1.99343
