29
Generated by autodE on: 2022-06-05. E = -766.672104 Ha
C     3.46432   2.55215   0.42543
O     2.81633   1.35167  -0.00893
C     1.47138   1.38968  -0.11199
O     0.82926   2.39601   0.14646
C     0.96163   0.09465  -0.55331
C    -0.24765  -0.51125  -0.40044
C    -1.53466  -0.11457   0.15614
C    -2.39388  -1.11425   0.66593
C    -3.62778  -0.78001   1.22185
C    -4.04263   0.55514   1.25941
C    -3.21079   1.55365   0.74068
C    -1.96896   1.22776   0.19789
C     0.02517  -1.97823  -0.86130
C     0.92033  -2.62563   0.21499
C     2.10533  -2.02418   0.07318
C     1.90163  -1.02080  -1.08161
O     0.97615  -1.74404  -1.90591
H     3.12417   2.83402   1.43282
H     4.53769   2.32937   0.43834
H     3.25685   3.37822  -0.27071
H    -2.08817  -2.16148   0.64324
H    -4.27127  -1.56648   1.62253
H    -5.01374   0.81608   1.68654
H    -3.53381   2.59716   0.75803
H    -1.32213   2.00681  -0.19912
H    -0.84285  -2.54382  -1.21273
H     0.58653  -3.35810   0.94885
H     3.01847  -2.12868   0.65792
H     2.78612  -0.69152  -1.63429
