23
Generated by autodE on: 2022-05-30. E = -646.337560 Ha
C     4.39868   0.41441  -0.67323
O     3.23332  -0.27198  -0.18963
C     2.06353   0.32705  -0.38211
O     1.92544   1.40689  -0.93576
C     0.91954  -0.45690   0.14959
C     1.05548  -1.77037   0.82883
N    -0.22942   0.14075  -0.04759
C    -1.53193  -0.14658   0.23522
C    -1.95875  -1.31818   0.89155
N    -2.39179  -2.26072   1.42965
C    -2.46897   0.87956  -0.20995
C    -3.93334   0.66397   0.05200
O    -2.03976   1.88793  -0.78476
H     4.49962   1.38972  -0.17597
H     5.25020  -0.22969  -0.42761
H     4.32979   0.56148  -1.76058
H     2.10643  -2.07285   0.86777
H     0.48182  -2.54568   0.29574
H     0.66360  -1.71849   1.85773
H    -0.16709   1.05520  -0.53460
H    -4.50559   1.51870  -0.32969
H    -4.11759   0.54623   1.13183
H    -4.27801  -0.26096  -0.43777
