23
Generated by autodE on: 2022-07-27. E = -646.329626 Ha
C    -1.73434  -3.65834   0.45033
O    -1.16781  -2.53604   1.14425
C    -0.95574  -1.43424   0.42341
O    -1.20440  -1.33599  -0.76381
C    -0.45707  -0.32347   1.26826
C    -0.69998  -0.34049   2.73990
N     0.12795   0.71645   0.72572
C     0.63454   1.06653  -0.50137
C     0.90203   0.16673  -1.54826
N     1.21161  -0.51077  -2.44888
C     1.08512   2.44995  -0.54951
C     1.73689   2.94608  -1.81026
O     0.93589   3.17485   0.44560
H    -2.72280  -3.39714   0.04567
H    -1.07362  -3.97293  -0.37016
H    -1.82570  -4.45713   1.19476
H    -0.11793  -1.15184   3.20720
H    -0.40297   0.61281   3.19895
H    -1.76107  -0.53728   2.95792
H     0.27547   1.52613   1.35632
H     1.10062   2.74459  -2.68596
H     1.92742   4.02342  -1.72661
H     2.69033   2.41803  -1.97470
