19
Generated by autodE on: 2022-05-30. E = -535.502985 Ha
C     3.42781  -0.00995  -0.91023
O     2.02532  -0.24377  -0.73060
C     1.44828   0.33248   0.33678
O     2.05976   1.02240   1.13533
C     0.01760   0.02913   0.40605
C    -0.89204   0.55714   1.24025
C    -2.23723  -0.03803   0.78120
C    -2.55707   0.59243  -0.59589
C    -1.65883   0.06388  -1.43139
C    -0.79968  -0.87336  -0.55159
O    -1.79988  -1.34866   0.36990
H     3.71178  -0.55266  -1.81934
H     3.62773   1.06485  -1.03146
H     3.99574  -0.38944  -0.04816
H    -0.75116   1.29601   2.02827
H    -3.04450  -0.07951   1.51989
H    -3.32210   1.34698  -0.77469
H    -1.48660   0.26185  -2.48869
H    -0.26371  -1.68959  -1.04472
