58
Generated by autodE on: 2022-10-23. E = -1487.913106 Ha
C    -1.43565   2.80025  -2.92167
N    -0.77766   2.20843  -1.77524
C    -1.33293   2.19127  -0.56191
O    -2.40340   2.76876  -0.31082
C    -0.60700   1.30108   0.47909
C    -0.71304   1.82056   1.94296
O     0.14041   1.46276   2.76375
N    -1.76107   2.57916   2.27241
C    -1.96372   3.04917   3.62806
C    -1.25714  -0.12324   0.45851
C    -2.02306  -0.49467  -0.85105
O    -0.96569  -0.83337  -1.74760
C    -0.39274  -1.86752  -0.93530
C    -1.62197  -2.75110  -0.65165
C    -1.54861  -4.12722  -0.37421
N    -1.42334  -5.26889  -0.16178
C    -2.64819  -1.85524  -0.58077
O    -3.92388  -1.92904  -0.26497
C    -4.45447  -3.20175   0.13477
C    -0.06788  -1.12377   0.38943
C     1.23199  -0.28009   0.42851
C     1.87618  -0.42208   1.85705
C     3.09013   0.40481   2.19374
O     1.46546  -1.25143   2.65029
C     2.26850  -0.80324  -0.57184
C     2.43946  -0.21472  -1.83128
C     3.33216  -0.76027  -2.75880
C     4.06726  -1.90554  -2.44251
C     3.90092  -2.50258  -1.18906
C     3.01017  -1.95532  -0.26311
N     0.77831   1.07716   0.10163
C     1.67133   2.22127   0.18887
H    -2.29009   2.18767  -3.25684
H    -1.80960   3.80295  -2.67142
H    -0.71520   2.88246  -3.74510
H     0.02330   1.59525  -1.90107
H    -2.38423   2.84652   1.50649
H    -2.88523   3.64298   3.66462
H    -2.05650   2.20663   4.33167
H    -1.12382   3.67730   3.96624
H    -1.90628  -0.26093   1.32988
H    -2.70687   0.25382  -1.26159
H     0.44028  -2.36198  -1.44029
H    -5.51564  -3.03708   0.35360
H    -4.34847  -3.93112  -0.68172
H    -3.93476  -3.56118   1.03510
H    -0.05474  -1.82784   1.22450
H     2.75412   1.34095   2.66295
H     3.69657  -0.14625   2.92562
H     3.69493   0.65619   1.31489
H     1.87036   0.67470  -2.09734
H     3.45053  -0.28474  -3.73539
H     4.76477  -2.33114  -3.16766
H     4.46519  -3.40142  -0.92942
H     2.88214  -2.44481   0.70447
H     1.27749   3.04043  -0.42998
H     2.65827   1.95714  -0.20993
H     1.80257   2.60980   1.21207
