40
Generated by autodE on: 2022-10-23. E = -973.434459 Ha
C     0.08909   2.88589   3.47134
N    -0.68101   1.90499   2.74299
C    -0.20549   1.30192   1.63076
O     0.95241   1.55236   1.20924
C    -1.10539   0.38428   0.93770
C    -2.33671  -0.11373   1.51911
O    -2.94216   0.46640   2.45568
N    -2.82148  -1.29436   1.03525
C    -4.01452  -1.90281   1.58547
N    -0.67772  -0.06364  -0.32211
C    -1.62121   0.07617  -1.45248
C     0.58402  -0.38310  -0.54229
C     1.44977  -0.86733   0.60312
C     2.91984  -0.56489   0.53260
O     0.97247  -1.57600   1.47461
C     1.17139  -0.36481  -1.89342
C     1.79070  -1.51905  -2.40605
C     2.37157  -1.49896  -3.67444
C     2.35733  -0.32495  -4.43480
C     1.75970   0.83171  -3.92237
C     1.16759   0.81484  -2.65972
H     1.12473   2.54130   3.61167
H    -0.36773   3.04037   4.45792
H     0.13071   3.86156   2.95484
H    -1.65700   1.70653   2.97206
H    -2.20918  -1.87334   0.47169
H    -4.29693  -2.75983   0.96020
H    -3.86690  -2.25799   2.62078
H    -4.84811  -1.18512   1.59435
H    -1.54508   1.08752  -1.87113
H    -1.39627  -0.66856  -2.22412
H    -2.63585  -0.07378  -1.07521
H     3.31890  -0.51193   1.55461
H     3.12669   0.36374  -0.01262
H     3.42825  -1.39224   0.01011
H     1.80046  -2.43656  -1.81345
H     2.83824  -2.40356  -4.07040
H     2.81732  -0.30965  -5.42546
H     1.75926   1.75405  -4.50744
H     0.71899   1.72153  -2.25045
