18
Generated by autodE on: 2022-10-23. E = -514.386965 Ha
C     2.76195  -0.67148   0.09832
O     1.50717  -1.36670   0.17564
C     0.40217  -0.65700   0.21174
C     0.11119   0.67566   0.18806
C     0.91245   1.82106   0.09027
N     1.53209   2.80989   0.01448
C    -1.45194   0.68580   0.16699
C    -1.89861   0.13097  -1.20001
C    -1.58362  -1.16772  -1.16800
C    -0.96197  -1.38097   0.22653
O    -1.71590  -0.44744   1.01215
H     3.54002  -1.44327   0.08834
H     2.88798  -0.02063   0.97597
H     2.80772  -0.07713  -0.82598
H    -1.92637   1.60219   0.53161
H    -2.31441   0.72690  -2.01173
H    -1.66144  -1.92955  -1.94233
H    -0.95356  -2.39242   0.64550
