58
Generated by autodE on: 2022-10-23. E = -1487.801722 Ha. Imaginary frequency = -207.3 cm-1
C    -1.88141   2.86864  -2.54868
N    -0.98155   2.23915  -1.60465
C    -0.93423   2.63830  -0.31230
O    -1.62912   3.60582   0.06923
C    -0.09035   1.83202   0.60513
C    -0.38894   1.79263   2.03944
O     0.20601   1.01094   2.81993
N    -1.35621   2.60229   2.51185
C    -1.75402   2.57148   3.90174
C    -1.43129  -0.43349   0.68889
C    -2.16058  -0.47293  -0.65796
O    -1.06192  -0.68984  -1.55993
C    -0.54699  -1.85338  -0.87778
C    -1.82048  -2.75367  -0.89472
C    -1.79304  -4.15350  -0.96213
N    -1.71052  -5.31791  -1.02912
C    -2.83607  -1.85502  -0.73928
O    -4.14049  -1.94244  -0.60867
C    -4.73780  -3.24888  -0.60333
C    -0.38469  -1.30536   0.54633
C     1.61107   0.06419   0.53011
C     1.95505  -0.12684   2.00940
C     2.85269   0.96179   2.55902
O     1.85976  -1.21045   2.56928
C     2.52297  -0.67579  -0.37273
C     2.25531  -0.75277  -1.75989
C     3.07198  -1.48532  -2.61700
C     4.17990  -2.17798  -2.11799
C     4.45174  -2.13268  -0.74816
C     3.63758  -1.39713   0.11280
N     1.04966   1.23116   0.08633
C     1.78540   2.01162  -0.96059
H    -2.93931   2.72849  -2.26589
H    -1.69076   3.95052  -2.60984
H    -1.71954   2.42541  -3.53960
H    -0.64442   1.30370  -1.82281
H    -1.76853   3.25477   1.84255
H    -2.54635   3.31419   4.05849
H    -2.13966   1.58066   4.19310
H    -0.91203   2.80945   4.57270
H    -1.89728  -0.09144   1.60803
H    -2.79182   0.37378  -0.94390
H     0.32741  -2.27578  -1.37807
H    -5.81552  -3.09300  -0.48008
H    -4.53728  -3.75983  -1.55660
H    -4.34263  -3.84033   0.23551
H     0.15797  -1.82138   1.33466
H     2.60433   1.95545   2.16736
H     2.79837   0.95918   3.65599
H     3.88693   0.72210   2.25747
H     1.37816  -0.25793  -2.17012
H     2.83150  -1.52603  -3.68174
H     4.81933  -2.75511  -2.78966
H     5.30888  -2.67341  -0.34062
H     3.88148  -1.39364   1.17354
H     1.46482   1.80391  -1.98287
H     2.85175   1.78590  -0.86281
H     1.63470   3.07562  -0.74949
