86
Generated by autodE on: 2022-07-05. E = -2514.438930 Ha
C    24.00604 -30.88796   2.15360
N    23.04203 -31.95895   2.30011
C    22.44885 -32.51237   1.23293
O    22.79247 -32.27354   0.07705
C    21.29931 -33.50792   1.58464
C    21.82355 -34.96916   1.54148
O    21.18849 -35.89384   1.99827
O    23.06282 -35.06380   1.08720
C    23.70241 -36.34963   1.17559
O    20.95327 -33.35171   2.94391
C    19.73242 -32.59350   3.09330
C    18.97509 -33.29108   4.23070
C    18.94861 -34.69479   4.24024
C    18.25360 -35.38907   5.23177
C    17.57980 -34.68980   6.23818
C    17.61705 -33.29328   6.24642
C    18.31094 -32.59949   5.25087
C    20.18337 -31.15890   3.40364
C    20.86068 -30.91965   4.61011
C    21.46848 -29.68671   4.85545
C    21.40702 -28.67022   3.89664
C    20.73181 -28.89959   2.69539
C    20.12720 -30.13610   2.44976
C    19.07819 -32.75142   1.69655
C    19.97454 -33.27011   0.81806
C    19.77047 -33.68508  -0.66151
C    20.86143 -34.66460  -1.18854
C    20.73549 -36.05364  -1.01352
C    21.67004 -36.94375  -1.54826
C    22.76118 -36.46798  -2.27785
C    22.89619 -35.09165  -2.47145
C    21.95420 -34.20672  -1.94221
C    19.77085 -32.46258  -1.61035
C    20.32664 -31.22715  -1.26260
C    20.33534 -30.15745  -2.16192
C    19.78301 -30.30022  -3.43599
C    19.22910 -31.53109  -3.80151
C    19.23016 -32.59825  -2.90040
C    18.38544 -34.40646  -0.80579
C    17.90893 -35.33961   0.32604
C    16.59549 -34.85759   0.93674
C    16.66357 -33.63934   1.86908
C    17.58295 -32.44432   1.52529
Cl   17.04537 -31.13594   2.76823
C    17.20855 -31.64605   0.26196
O    17.81888 -30.67754  -0.12708
O    16.08488 -32.08139  -0.29781
C    15.63211 -31.37223  -1.46449
H    24.87148 -31.21525   1.55790
H    24.35243 -30.58496   3.14895
H    23.55701 -30.01400   1.65351
H    22.61731 -32.12404   3.20621
H    24.63499 -36.25940   0.60845
H    23.91244 -36.58191   2.22971
H    23.06306 -37.12669   0.74119
H    19.47910 -35.24407   3.46325
H    18.23980 -36.48149   5.21774
H    17.03471 -35.23053   7.01558
H    17.10359 -32.73481   7.03259
H    18.32321 -31.51134   5.27176
H    20.93804 -31.71313   5.35529
H    21.99734 -29.52219   5.79719
H    21.88624 -27.70662   4.08461
H    20.67710 -28.11508   1.93697
H    19.61028 -30.29478   1.50523
H    19.90876 -36.46469  -0.44073
H    21.53974 -38.01657  -1.38798
H    23.49470 -37.16208  -2.69478
H    23.73648 -34.69769  -3.04841
H    22.07763 -33.14286  -2.12123
H    20.74575 -31.07919  -0.27297
H    20.76987 -29.20305  -1.85433
H    19.78371 -29.46303  -4.13815
H    18.79622 -31.66633  -4.79574
H    18.81013 -33.55145  -3.22148
H    17.62251 -33.64217  -0.97551
H    18.41447 -34.96812  -1.74660
H    17.74252 -36.34613  -0.08648
H    18.67049 -35.45629   1.10924
H    16.14996 -35.66815   1.53575
H    15.88684 -34.65440   0.11902
H    16.97713 -33.97185   2.86450
H    15.64921 -33.23451   1.97824
H    16.39599 -31.42175  -2.25375
H    15.42529 -30.32252  -1.21324
H    14.71522 -31.87934  -1.78415
