40
Generated by autodE on: 2022-07-05. E = -1052.274072 Ha
C     3.24403   0.75448  -2.98698
N     2.89058   0.68876  -1.58657
C     1.74338   0.08925  -1.17256
O     0.86094  -0.27906  -1.98374
C     1.58440  -0.10615   0.25179
O     0.40930  -0.77438   0.63177
C    -0.74224  -0.40633   0.14866
C    -1.01317   0.98798  -0.20643
C    -0.53524   2.01240   0.63596
C    -0.84146   3.33984   0.35234
C    -1.59850   3.66094  -0.78235
C    -2.06457   2.64843  -1.62609
C    -1.78019   1.31371  -1.33855
C    -1.75344  -1.44290   0.13000
C    -1.35113  -2.79869   0.13707
C    -2.30588  -3.80847   0.14096
C    -3.66911  -3.48380   0.14141
C    -4.07787  -2.14493   0.13834
C    -3.13069  -1.12563   0.12998
C     2.53138   0.14405   1.27046
O     3.66998   0.61182   1.09947
O     2.06757  -0.14729   2.52091
C     2.97921   0.06394   3.59838
H     2.39089   1.10997  -3.58270
H     3.55385  -0.22414  -3.39702
H     4.07643   1.45918  -3.11490
H     3.60115   0.83157  -0.87007
H     0.04869   1.75783   1.52130
H    -0.48885   4.13037   1.01795
H    -1.82566   4.70558  -1.00681
H    -2.65010   2.89863  -2.51308
H    -2.12538   0.52161  -2.00393
H    -0.28826  -3.03977   0.11155
H    -1.99238  -4.85418   0.13421
H    -4.41700  -4.28007   0.14277
H    -5.14086  -1.89674   0.14976
H    -3.45181  -0.08467   0.15574
H     3.87757  -0.56291   3.48918
H     2.44036  -0.21752   4.51186
H     3.28620   1.11920   3.65872
