86
Generated by autodE on: 2022-07-05. E = -2514.323658 Ha. Imaginary frequency = -148.9 cm-1
C    24.08111 -30.70088   2.57225
N    23.26937 -31.89675   2.68683
C    22.63818 -32.42325   1.62064
O    22.86144 -32.02585   0.46998
C    21.70404 -33.56267   1.90308
C    22.13202 -34.93698   1.65046
O    21.50159 -35.93380   1.98346
O    23.34087 -34.99721   1.06604
C    23.93884 -36.29260   0.94511
O    20.85546 -33.55373   2.93924
C    20.12479 -32.67553   3.56058
C    19.21784 -33.29179   4.53433
C    19.03813 -34.69365   4.53760
C    18.15656 -35.29167   5.43254
C    17.44161 -34.51000   6.34921
C    17.61730 -33.12314   6.35996
C    18.49238 -32.51666   5.46049
C    20.48555 -31.23249   3.59951
C    21.03207 -30.74054   4.80016
C    21.46090 -29.41553   4.89456
C    21.34087 -28.56048   3.79615
C    20.79237 -29.04037   2.60315
C    20.36817 -30.36541   2.50177
C    18.78685 -32.73793   1.22377
C    19.56487 -33.23651   0.40371
C    19.68094 -33.77793  -0.98663
C    20.80838 -34.78822  -1.29458
C    20.59047 -36.17456  -1.26958
C    21.57221 -37.06778  -1.70988
C    22.79704 -36.59445  -2.18426
C    23.03874 -35.21887  -2.18745
C    22.05629 -34.33063  -1.74682
C    19.82683 -32.60481  -1.97969
C    20.30133 -31.34814  -1.58630
C    20.45518 -30.31547  -2.51679
C    20.13360 -30.52287  -3.85988
C    19.66619 -31.77772  -4.26516
C    19.51985 -32.80852  -3.33468
C    18.26239 -34.43239  -1.19360
C    17.71464 -35.32184  -0.04967
C    16.46431 -34.77844   0.66553
C    16.62637 -33.76349   1.81217
C    17.37544 -32.46272   1.48519
Cl   17.06831 -31.26356   2.90402
C    16.77281 -31.62140   0.34212
O    17.40223 -30.82513  -0.31894
O    15.47198 -31.84278   0.19810
C    14.79080 -31.06638  -0.80236
H    23.54214 -29.92073   2.01394
H    25.02833 -30.90527   2.04746
H    24.30673 -30.32790   3.57829
H    23.05083 -32.24661   3.61334
H    24.80252 -36.17048   0.28214
H    24.27057 -36.64149   1.93549
H    23.23538 -37.01562   0.51794
H    19.59437 -35.30493   3.82760
H    18.02484 -36.37582   5.41700
H    16.75016 -34.98164   7.05113
H    17.06258 -32.50545   7.06958
H    18.59888 -31.43338   5.46648
H    21.14341 -31.40764   5.65642
H    21.89157 -29.05326   5.83059
H    21.67392 -27.52276   3.86913
H    20.68859 -28.37806   1.74095
H    19.93000 -30.72324   1.57287
H    19.64396 -36.58181  -0.92122
H    21.36913 -38.14114  -1.68675
H    23.56056 -37.29171  -2.53683
H    23.99724 -34.82976  -2.53927
H    22.26270 -33.26233  -1.76672
H    20.56756 -31.17403  -0.54488
H    20.82858 -29.34372  -2.18440
H    20.24944 -29.71585  -4.58726
H    19.41682 -31.95798  -5.31376
H    19.17413 -33.78599  -3.67441
H    17.56295 -33.60419  -1.37662
H    18.29609 -35.00672  -2.12898
H    17.43117 -36.29178  -0.48676
H    18.49967 -35.54520   0.68866
H    15.93384 -35.63200   1.11769
H    15.77732 -34.36508  -0.08997
H    17.16136 -34.22846   2.65245
H    15.62418 -33.49343   2.17215
H    15.23308 -31.25111  -1.79146
H    14.85755 -29.99595  -0.56129
H    13.74738 -31.39965  -0.78089
