36
Generated by autodE on: 2022-05-26. E = -692.504917 Ha
C     4.19633  -0.04790   1.57109
N     2.95768  -0.54265   1.00991
C     2.03499   0.27313   0.47897
O     2.18336   1.50000   0.38674
C     0.77894  -0.40703  -0.00172
N     0.57089  -1.64408   0.24796
C    -0.71392  -2.04795  -0.31915
C    -1.40985  -0.79330  -0.89352
C    -1.90834  -1.08006  -2.31086
C    -2.55871  -0.19165  -0.02898
C    -2.18383  -0.13306   1.46890
C    -1.15009   1.02998   1.53903
C    -1.01209   1.45359   0.06396
C    -2.46728   1.29954  -0.41310
C    -0.29544   0.33620  -0.76765
C     0.24839   0.88327  -2.09100
H     4.02275   0.53478   2.49152
H     4.71440   0.60552   0.85280
H     4.84670  -0.89793   1.81060
H     2.70940  -1.52479   1.08584
H    -1.30787  -2.57242   0.44482
H    -0.51464  -2.79427  -1.10582
H    -1.08760  -1.39446  -2.97221
H    -2.64415  -1.90038  -2.28271
H    -2.39776  -0.20947  -2.77005
H    -3.52363  -0.68357  -0.22007
H    -1.78269  -1.08220   1.84928
H    -3.07855   0.09610   2.06697
H    -0.19828   0.73218   2.00008
H    -1.54135   1.87307   2.12836
H    -0.54943   2.43926  -0.07576
H    -3.16818   1.93495   0.15106
H    -2.60515   1.49235  -1.48589
H     1.03512   1.62604  -1.89935
H     0.67892   0.08376  -2.71206
H    -0.54908   1.37032  -2.67078
