13
Generated by autodE on: 2022-05-26. E = -340.857063 Ha
C     2.17444   1.66256   0.62951
N     1.45411   0.67725   0.26199
C     0.83476  -0.29991  -0.13407
C    -0.52634  -0.70037   0.28529
O    -0.67131  -1.32871   1.34151
N    -1.52191  -0.42858  -0.57979
C    -1.38137   0.38118  -1.77580
H     2.19282   2.57281   0.02241
H     2.76367   1.58509   1.54847
H    -2.45161  -0.71692  -0.28417
H    -0.40902   0.18612  -2.25268
H    -2.17090   0.11341  -2.49006
H    -1.45219   1.46094  -1.56455
