36
Generated by autodE on: 2022-05-26. E = -692.365850 Ha. Imaginary frequency = -385.9 cm-1
C     4.06783   0.44756   2.00563
N     2.77165  -0.06993   1.61072
C     2.43902  -0.24385   0.31654
O     3.19268   0.02397  -0.63176
C     1.05785  -0.66182   0.04676
N     0.51618  -1.75377  -0.02880
C    -0.56159  -2.40569  -0.37395
C    -1.74708  -0.28953  -1.02820
C    -2.21338  -0.95249  -2.29710
C    -2.75745   0.07575   0.07362
C    -2.15071  -0.14022   1.48955
C    -1.06128   0.96790   1.57558
C    -1.14509   1.63241   0.17903
C    -2.68330   1.62195  -0.02533
C    -0.73422   0.65380  -0.93771
C     0.15452   1.09436  -2.06716
H     4.02109   0.76192   3.05565
H     4.33683   1.31453   1.38497
H     4.86389  -0.30829   1.89946
H     2.10731  -0.35383   2.32457
H    -1.16656  -2.87044   0.40958
H    -0.58193  -2.85104  -1.37207
H    -1.37787  -1.19104  -2.97267
H    -2.76969  -1.88443  -2.10830
H    -2.89682  -0.28060  -2.85393
H    -3.74751  -0.38360  -0.05920
H    -1.74333  -1.14980   1.62099
H    -2.92565   0.00554   2.25845
H    -0.05902   0.57826   1.79134
H    -1.30695   1.70658   2.35515
H    -0.63933   2.60686   0.11829
H    -3.24535   2.15650   0.76153
H    -2.98948   2.00109  -1.01257
H     1.07733   1.57537  -1.70975
H     0.44844   0.25040  -2.70977
H    -0.36965   1.82796  -2.71115
