22
Generated by autodE on: 2022-07-27. E = -608.912552 Ha
C     3.59296   1.50620  -0.42458
C     3.38568   0.10827   0.08273
O     4.21810  -0.55306   0.68867
C     2.10773  -0.48488  -0.27006
N     0.98635  -0.70912   0.06625
C    -0.28055  -0.90167   0.31622
C    -0.63035  -2.09085   1.01509
N    -0.93511  -3.05972   1.58705
C    -1.29824   0.07151  -0.11101
C    -2.65999  -0.16719   0.15368
C    -3.62731   0.75012  -0.25696
C    -3.25537   1.91500  -0.93573
C    -1.90256   2.15727  -1.20017
C    -0.92821   1.24761  -0.79145
H     2.66403   2.09432  -0.37724
H     3.90983   1.45561  -1.48014
H     4.38790   1.98453   0.16419
H    -2.96244  -1.07459   0.68051
H    -4.68022   0.55103  -0.04481
H    -4.01500   2.63136  -1.25606
H    -1.60153   3.06495  -1.72821
H     0.12336   1.45322  -1.00120
