22
Generated by autodE on: 2022-06-16. E = -608.912464 Ha
C    -3.55849   1.34943   1.32309
C    -3.44057   0.20881   0.35046
O    -4.39521  -0.41886  -0.10742
C    -2.10937  -0.12551  -0.03927
N    -1.01831  -0.45388  -0.34928
C     0.23005  -0.74169  -0.63736
C     0.45291  -1.81871  -1.53536
N     0.65653  -2.70069  -2.27098
C     1.33743   0.02427  -0.04977
C     2.66922  -0.29578  -0.37753
C     3.72396   0.42943   0.17611
C     3.47207   1.48200   1.06233
C     2.15056   1.80370   1.39190
C     1.08916   1.08445   0.84399
H    -4.09348   0.99131   2.21711
H    -4.16588   2.14297   0.85885
H    -2.58102   1.75789   1.61605
H     2.87791  -1.11511  -1.06858
H     4.75132   0.16894  -0.08852
H     4.30018   2.04833   1.49396
H     1.94238   2.62359   2.08314
H     0.06449   1.34837   1.11272
