33
Generated by autodE on: 2022-07-27. E = -749.056022 Ha
C    -4.61065  -0.18109   1.68917
C    -3.49932   0.36951   0.82767
O    -3.73766   1.30572   0.01579
C    -2.20837  -0.19504   0.95770
N    -1.26493   0.31573   0.11316
C     0.01974   0.07350  -0.08347
C     0.75244  -0.85079   0.80353
C     0.64269  -0.75808   2.20402
C     1.36043  -1.62475   3.02860
C     2.19036  -2.60313   2.47056
C     2.30647  -2.70354   1.08044
C     1.59916  -1.83116   0.25244
C     0.68828   0.73901  -1.20944
C     2.07413   1.00073  -1.15781
C     2.71417   1.66043  -2.20603
C     1.99018   2.07303  -3.32982
C     0.61682   1.81457  -3.39738
C    -0.02824   1.15100  -2.35455
H    -4.27351  -0.98619   2.35714
H    -5.41910  -0.56270   1.04351
H    -5.04231   0.63344   2.29420
H    -1.95315  -1.00280   1.63646
H    -1.70292   1.03270  -0.48487
H     0.00613   0.00814   2.64992
H     1.27393  -1.53328   4.11374
H     2.74726  -3.28411   3.11828
H     2.95174  -3.46564   0.63754
H     1.69471  -1.91122  -0.83193
H     2.64746   0.70031  -0.27991
H     3.78632   1.86002  -2.14151
H     2.49413   2.58712  -4.15128
H     0.04456   2.11783  -4.27711
H    -1.09292   0.92593  -2.45034
