35
Generated by autodE on: 2022-06-15. E = -973.850827 Ha
C    -4.00214   2.41886  -1.63777
O    -3.35262   1.29994  -1.02461
C    -2.02418   1.38783  -0.87843
O    -1.38944   2.38218  -1.24111
C    -1.37021   0.24091  -0.27334
N     0.00189   0.43372  -0.21311
C     0.97546  -0.17896   0.41304
C     0.68477  -1.15562   1.53775
C     1.35175  -2.49852   1.49912
O     0.03337  -0.75205   2.48520
C     2.35963   0.20212   0.12173
C     2.72890   0.63969  -1.16758
C     4.04107   1.02925  -1.43100
C     5.00591   0.98248  -0.41935
C     4.65104   0.54580   0.86172
C     3.34104   0.15602   1.13390
C    -1.89954  -1.07217  -0.00611
O    -1.19003  -2.05148   0.23842
O    -3.23820  -1.17444  -0.05648
C    -3.78486  -2.48115   0.15009
H    -5.06967   2.16947  -1.66100
H    -3.84174   3.33473  -1.05006
H    -3.62973   2.57550  -2.66088
H     0.26556   1.25787  -0.77269
H     1.48087  -2.85485   0.46893
H     0.75990  -3.21167   2.08782
H     2.34975  -2.41457   1.96026
H     1.99260   0.64647  -1.97440
H     4.31479   1.35761  -2.43599
H     6.03505   1.28165  -0.62998
H     5.39862   0.51466   1.65721
H     3.07398  -0.15429   2.14570
H    -4.87322  -2.36339   0.08599
H    -3.43619  -3.18001  -0.62460
H    -3.50479  -2.87027   1.14005
