35
Generated by autodE on: 2022-07-27. E = -973.850845 Ha
C    -0.50531   4.54891   1.89858
O     0.27426   3.43799   1.44227
C    -0.40815   2.37034   1.00759
O    -1.64169   2.33793   1.00462
C     0.38841   1.25250   0.53432
N    -0.42486   0.22770   0.07385
C    -0.20986  -1.02932  -0.22492
C     1.06755  -1.72225   0.21343
C     1.83449  -2.50986  -0.80700
O     1.33631  -1.71587   1.40191
C    -1.28191  -1.80522  -0.85286
C    -2.20009  -1.18808  -1.72860
C    -3.23554  -1.92689  -2.29890
C    -3.36922  -3.28955  -2.01327
C    -2.46117  -3.91211  -1.14986
C    -1.42394  -3.18074  -0.57435
C     1.80032   1.19691   0.25447
O     2.32710   0.29341  -0.40028
O     2.52276   2.21916   0.74230
C     3.91972   2.21656   0.43092
H    -1.14463   4.25724   2.74487
H    -1.13559   4.94444   1.08849
H     0.21652   5.30995   2.21820
H    -1.39654   0.55871  -0.01381
H     1.43254  -3.53593  -0.84209
H     1.74174  -2.07163  -1.80913
H     2.88747  -2.56490  -0.50091
H    -2.08584  -0.13412  -1.99089
H    -3.93364  -1.43826  -2.98198
H    -4.17746  -3.86732  -2.46703
H    -2.56508  -4.97406  -0.91739
H    -0.74206  -3.67552   0.11945
H     4.40514   1.30846   0.81768
H     4.08056   2.27720  -0.65568
H     4.33708   3.10422   0.92119
