37
Generated by autodE on: 2022-05-28. E = -896.873931 Ha
C    -1.28540   3.55100   0.94900
C    -1.98767   2.29100   0.51860
O    -3.13733   2.27956   0.08287
N    -1.29147   1.11558   0.66973
N     0.09349   1.13916   0.89771
N     0.60563   0.51786  -0.28668
C     1.98364   0.44806  -0.43389
C     2.84115   1.23346   0.36603
C     4.22185   1.19036   0.16759
C     4.78483   0.36757  -0.81336
C     3.93614  -0.41885  -1.60049
C     2.55359  -0.38921  -1.41866
C    -0.30797  -0.54192  -0.70539
C    -0.10157  -1.92990  -0.01100
C    -1.15019  -2.85963  -0.59700
C    -2.32032  -2.47546  -0.06173
C    -3.71791  -2.90372  -0.33435
C    -1.95861  -1.31356   0.86274
O    -0.63453  -1.66166   1.30258
C    -1.65966  -0.09882  -0.05969
H    -0.41946   3.74030   0.29655
H    -1.99290   4.38617   0.87616
H    -0.90717   3.46580   1.97740
H     0.26708   0.49359   1.67829
H     2.41716   1.87805   1.13516
H     4.86591   1.80976   0.79734
H     5.86653   0.33523  -0.95920
H     4.35396  -1.07256  -2.37051
H     1.91471  -1.01188  -2.04559
H    -0.33560  -0.61858  -1.79778
H     0.93524  -2.27740   0.04526
H    -0.97428  -3.60221  -1.37566
H    -4.31010  -2.05505  -0.71974
H    -4.21733  -3.23855   0.59091
H    -3.75740  -3.71766  -1.07259
H    -2.62514  -1.10155   1.70610
H    -2.47136   0.12186  -0.75861
