21
Generated by autodE on: 2022-05-28. E = -549.949900 Ha
C     3.67696   1.46782   0.04616
C     2.99864   0.13114  -0.00684
O     3.61539  -0.93644  -0.05584
N     1.60971   0.21200   0.00286
N     1.08409  -0.98887  -0.04663
N    -0.12456  -1.35882  -0.05631
C    -1.20012  -0.47059  -0.01440
C    -1.16555   0.94273   0.03424
C    -2.36246   1.65912   0.06914
C    -3.59624   1.00103   0.05769
C    -3.63813  -0.39824   0.00948
C    -2.45394  -1.12494  -0.02643
H     3.37334   2.07359  -0.82250
H     3.35801   2.01381   0.94803
H     4.76656   1.34109   0.05016
H     1.77686  -1.76338  -0.08352
H    -0.21169   1.45907   0.04333
H    -2.32797   2.75040   0.10617
H    -4.52417   1.57665   0.08573
H    -4.59727  -0.92039  -0.00008
H    -2.46465  -2.21557  -0.06467
