16
Generated by autodE on: 2022-05-28. E = -346.852369 Ha
C     2.51478   0.34027  -0.29486
C     1.04712   0.40563  -0.07228
C     0.11017   1.26740  -0.48838
C    -1.23075   0.67063  -0.00606
C    -1.48238  -0.61998  -0.82350
C    -0.55178  -1.48073  -0.39960
C     0.24511  -0.69975   0.67017
O    -0.81112   0.09166   1.24933
H     2.77695  -0.57905  -0.84934
H     2.88047   1.20557  -0.86699
H     3.06275   0.29309   0.66216
H     0.21911   2.15799  -1.10693
H    -2.07529   1.35760   0.11961
H    -2.22584  -0.73027  -1.61276
H    -0.32431  -2.48906  -0.74450
H     0.78887  -1.28234   1.42307
