26
Generated by autodE on: 2022-05-28. E = -3150.914630 Ha
C     3.47264  -0.70102   1.12565
O     2.40557  -0.73802   0.16424
C     1.22233  -1.16558   0.59421
O     1.01327  -1.55300   1.72395
C     0.12849  -1.06170  -0.49087
C     0.67099  -1.27886  -1.89982
O    -0.87083  -2.03091  -0.20227
C    -2.10531  -1.42050   0.22478
C    -2.46743  -1.87581   1.63074
C    -1.87319   0.06620   0.09605
C    -2.93663   1.06038   0.40133
C    -0.61147   0.25494  -0.30237
Br    0.24980   1.90996  -0.59853
H     4.34690  -0.31226   0.59140
H     3.67683  -1.71064   1.50936
H     3.20813  -0.03673   1.96088
H    -0.16367  -1.22107  -2.61298
H     1.41882  -0.51923  -2.16053
H     1.13818  -2.27204  -1.97391
H    -2.90112  -1.73547  -0.47593
H    -1.70380  -1.54519   2.34998
H    -3.44507  -1.46675   1.92817
H    -2.53144  -2.97422   1.66187
H    -3.86084   0.81809  -0.14865
H    -2.62513   2.08123   0.14174
H    -3.18826   1.03618   1.47499
