19
Generated by autodE on: 2022-05-28. E = -460.471775 Ha
C    -3.18774   1.18118   0.11251
C    -1.74321   0.90118   0.00826
O    -1.34878  -0.30274   0.18805
C    -0.15947  -0.95859   0.19380
C    -0.29246  -2.42972   0.41520
C     1.08878  -0.33233  -0.04980
O     2.17764  -0.92480  -0.07345
O     1.01708   1.01949  -0.25478
C     2.25275   1.69203  -0.49198
H    -3.37764   1.91646   0.91595
H    -3.55563   1.64392  -0.82110
H    -3.75633   0.26342   0.31676
H    -1.00234   1.67211  -0.20876
H    -0.50154  -2.99430  -0.51405
H     0.64020  -2.83015   0.83703
H    -1.10916  -2.64649   1.12206
H     2.00161   2.75100  -0.63171
H     2.74865   1.30458  -1.39504
H     2.93592   1.58129   0.36394
