26
Generated by autodE on: 2022-05-28. E = -3150.752439 Ha. Imaginary frequency = -287.9 cm-1
C     3.29701  -1.13204   1.07616
O     2.27606  -0.97681   0.09334
C     1.07468  -1.54631   0.37468
O     0.89834  -2.20201   1.40184
C     0.13929  -1.32116  -0.69826
C     0.60564  -1.09034  -2.10355
O    -1.10650  -1.83799  -0.63165
C    -2.02094  -1.76402   0.28550
C    -1.83810  -1.54813   1.73783
C    -2.18234   0.73950  -0.16122
C    -3.64607   0.76333  -0.13194
C    -0.97477   0.97296  -0.21626
Br    0.51587   2.03273  -0.22818
H     4.18230  -0.61884   0.68039
H     3.52749  -2.19465   1.24788
H     2.99769  -0.67352   2.03133
H    -0.25981  -0.91107  -2.75693
H     1.25231  -0.20205  -2.14593
H     1.18576  -1.93766  -2.51367
H    -2.97413  -2.15092  -0.08567
H    -1.53281  -2.48747   2.23300
H    -1.07960  -0.79072   1.96033
H    -2.80748  -1.24473   2.16005
H    -4.07563   0.18875  -0.96783
H    -4.01708   1.80022  -0.20542
H    -4.03661   0.32962   0.80228
