12
Generated by autodE on: 2022-06-16. E = -157.300301 Ha
C    -1.96160  -0.01447  -0.09888
C    -0.51890   0.38262  -0.18180
C     0.51890  -0.38259   0.18188
C     1.96160   0.01445   0.09882
H    -2.53163   0.67938   0.54433
H    -2.44441   0.02153  -1.09169
H    -2.08252  -1.03239   0.30398
H    -0.31459   1.38806  -0.57591
H     0.31458  -1.38802   0.57601
H     2.53138  -0.67899  -0.54507
H     2.08249   1.03263  -0.30339
H     2.44472  -0.02232   1.09145
