13
Generated by autodE on: 2022-06-16. E = -377.982216 Ha
C    -1.86560   0.53249   0.89273
C    -1.03683  -0.55791   0.28952
O    -1.47073  -1.54170  -0.26886
N     0.36998  -0.45799   0.53786
N     0.99215   0.34604  -0.20827
C     2.44053   0.52601   0.03102
O     0.49084   1.00269  -1.14332
H    -1.76185   0.49114   1.98956
H    -1.50164   1.51613   0.55962
H    -2.91861   0.39787   0.61427
H     2.95832   0.25951  -0.89899
H     2.59896   1.58990   0.24915
H     2.75456  -0.10790   0.86468
