13
Generated by autodE on: 2022-06-21. E = -449.162437 Ha
C    -3.08606   0.43100   0.32978
N    -2.44497  -0.76401   0.84867
C    -1.14567  -1.07049   0.77827
O    -0.60197  -2.07772   1.22428
C    -0.29270  -0.08682   0.08939
N     0.55787   0.54736  -0.38817
N     1.34292   1.37042  -0.95561
C     2.62716   1.04726  -1.03750
N     3.77826   0.88754  -1.17740
H    -2.36063   1.03702  -0.22965
H    -3.49243   1.04328   1.14858
H    -3.90495   0.15900  -0.35150
H    -3.02079  -1.45010   1.33493
