44
Generated by autodE on: 2022-06-22. E = -1139.064697 Ha
C    -0.08106   2.67466   1.74451
N    -0.96793   1.83006   0.95887
C    -2.00218   2.40890   0.22969
C    -2.71481   1.76698  -0.71224
C    -2.38053   0.36981  -1.14181
C    -1.55897  -0.36995  -0.05309
C    -2.53846  -0.98769   0.94857
N    -2.85125  -0.24482   2.01453
O    -3.01668  -2.10224   0.71821
C    -0.47593   0.54069   0.56847
C     0.70973   0.50323  -0.47847
C     0.55393   1.59806  -1.46711
N     0.43017   2.42474  -2.27060
C     2.07815   0.61192   0.20675
C     2.44450  -0.34280   1.16875
C     3.68016  -0.26213   1.81228
C     4.56894   0.77378   1.50716
C     4.21363   1.72304   0.54719
C     2.97821   1.63941  -0.10181
N     0.48515  -0.76546  -1.18344
C     1.58902  -1.49372  -1.77908
C    -0.66673  -1.48617  -0.69018
C    -0.28150  -2.52652   0.31156
N     0.14395  -3.29602   1.06745
C    -1.36652  -2.19218  -1.78884
N    -1.87386  -2.74331  -2.67242
H     0.41648   2.06846   2.51546
H    -0.66892   3.45834   2.24334
H     0.69811   3.16011   1.13043
H    -2.23978   3.43235   0.52806
H    -3.54991   2.27884  -1.19196
H    -1.80800   0.37978  -2.08512
H    -3.29135  -0.21090  -1.35114
H    -2.43296   0.67119   2.15810
H    -3.53396  -0.59663   2.67970
H    -0.08170   0.04215   1.46562
H     1.77296  -1.16345   1.42199
H     3.94826  -1.01523   2.55649
H     5.53435   0.83759   2.01416
H     4.89833   2.53621   0.29635
H     2.71986   2.38988  -0.84962
H     1.19954  -2.19063  -2.53614
H     2.18192  -2.06543  -1.04369
H     2.25352  -0.78210  -2.28752
