24
Generated by autodE on: 2022-07-28. E = -681.317563 Ha
C    -1.50069   0.24426  -2.54482
N    -0.91238   0.02945  -1.20429
C     0.05124   0.84109  -0.75990
C     0.27638   2.06996  -1.44195
N     0.52163   3.09742  -1.93436
C     0.93156   0.56150   0.38835
C     1.56414  -0.69066   0.51451
C     2.45667  -0.91525   1.55994
C     2.72273   0.09537   2.49071
C     2.10240   1.34240   2.36484
C     1.21809   1.58096   1.31362
C    -1.44395  -1.02908  -0.49184
C    -1.31879  -1.14631   0.90724
N    -1.27468  -1.28713   2.06563
C    -2.23403  -1.99391  -1.15160
N    -2.89404  -2.81400  -1.65849
H    -2.57431   0.44101  -2.43726
H    -1.00473   1.08380  -3.03734
H    -1.34374  -0.66326  -3.14159
H     1.36450  -1.48246  -0.20960
H     2.94913  -1.88586   1.64827
H     3.41795  -0.08889   3.31271
H     2.30943   2.13457   3.08731
H     0.73768   2.55600   1.21066
