24
Generated by autodE on: 2022-06-22. E = -681.317546 Ha
C    -2.38132  -1.76504   0.12908
N    -1.31462  -0.73917   0.11477
C    -0.04434  -1.09439   0.32452
C     0.22995  -2.38769   0.85057
N     0.54533  -3.42277   1.28381
C     1.12679  -0.24745   0.03209
C     1.25656   0.37698  -1.22335
C     2.40060   1.11631  -1.51496
C     3.41837   1.24631  -0.56327
C     3.29644   0.62039   0.68143
C     2.16105  -0.13302   0.97729
C    -1.74389   0.55271  -0.12262
C    -0.97218   1.68818   0.19860
N    -0.40152   2.67137   0.46562
C    -3.04566   0.77819  -0.61753
N    -4.11518   1.00722  -1.02822
H    -3.14500  -1.47701   0.86083
H    -2.82266  -1.81981  -0.87460
H    -1.95584  -2.73762   0.38726
H     0.46564   0.27803  -1.96929
H     2.49920   1.59361  -2.49213
H     4.30989   1.83343  -0.79459
H     4.08992   0.71780   1.42533
H     2.06515  -0.62632   1.94666
