44
Generated by autodE on: 2022-06-22. E = -1139.000603 Ha. Imaginary frequency = -344.6 cm-1
C    -0.57043   3.48248   0.61127
N    -1.21544   2.33868  -0.02047
C    -1.93666   2.49146  -1.20277
C    -2.59319   1.46644  -1.77068
C    -2.70683   0.12203  -1.10982
C    -1.75894  -0.05014   0.08249
C    -2.35162  -0.91238   1.16815
N    -2.08514  -0.60615   2.45085
O    -3.08116  -1.86462   0.86380
C    -0.94102   1.08001   0.44661
C     1.06570   0.45407  -0.68444
C     1.22514   1.63958  -1.44657
N     1.29804   2.65884  -2.01132
C     2.10153   0.22874   0.36282
C     2.92990  -0.90754   0.30633
C     3.92600  -1.10869   1.26178
C     4.12817  -0.17100   2.27934
C     3.32683   0.97458   2.32863
C     2.32180   1.17367   1.38149
N     0.51642  -0.64335  -1.37321
C     0.16573  -0.44302  -2.78192
C    -0.30005  -1.47371  -0.60779
C     0.18037  -1.96532   0.66369
N     0.45732  -2.40610   1.70194
C    -1.03320  -2.50213  -1.29965
N    -1.65855  -3.32020  -1.83833
H    -0.70321   3.42682   1.70184
H    -1.04151   4.40404   0.24819
H     0.50590   3.52638   0.39046
H    -1.92149   3.49505  -1.62882
H    -3.14636   1.63576  -2.69604
H    -3.74011  -0.01912  -0.74362
H    -2.58610  -0.68417  -1.85086
H    -1.51589   0.18356   2.72609
H    -2.42226  -1.23450   3.17381
H    -0.41650   1.06901   1.40142
H     2.78908  -1.63747  -0.49219
H     4.55423  -2.00074   1.20485
H     4.90897  -0.32889   3.02676
H     3.47962   1.71767   3.11474
H     1.70185   2.06869   1.43413
H    -0.22579  -1.37378  -3.20503
H     1.07161  -0.16394  -3.33325
H    -0.58763   0.35539  -2.89800
