23
Generated by autodE on: 2022-06-19. E = -351.521384 Ha
C     3.64100  -1.01826  -0.06403
C     2.42695  -0.75978   0.46982
C     2.16912  -0.92336   1.94594
C     1.33238  -0.31225  -0.38906
C     0.07239  -0.02189   0.02189
C    -0.97727   0.41872  -0.87414
C    -2.25805   0.72370  -0.54521
C    -3.23568   1.17153  -1.59478
C    -2.81713   0.65147   0.84741
H     4.47739  -1.35447   0.55510
H     3.82484  -0.89843  -1.13620
H     1.84148   0.02673   2.39978
H     3.07161  -1.26443   2.47248
H     1.36365  -1.65363   2.13008
H     1.57126  -0.20927  -1.45448
H    -0.17311  -0.12161   1.08272
H    -0.69112   0.51110  -1.92888
H    -2.78193   1.21246  -2.59588
H    -3.63900   2.17134  -1.35274
H    -4.10685   0.49299  -1.63321
H    -2.09362   0.30537   1.59665
H    -3.68944  -0.02520   0.87375
H    -3.19002   1.64257   1.16134
