24
Generated by autodE on: 2022-06-19. E = -705.268152 Ha
C     3.48949   0.63188  -2.11405
O     2.39290   0.31271  -1.25182
C     2.68414  -0.43622  -0.16592
O     3.81743  -0.83260   0.09307
C     1.53761  -0.72079   0.65019
C     1.61222  -1.48707   1.81765
N     1.64041  -2.12481   2.79992
O     0.33615  -0.20925   0.23705
C    -0.81229  -0.32523   0.78738
C    -1.95022   0.28821   0.17972
C    -3.20782   0.13921   0.80733
C    -4.33843   0.72017   0.24065
C    -4.22667   1.45027  -0.94854
C    -2.98042   1.60252  -1.57697
C    -1.84461   1.02815  -1.02270
H     3.94599  -0.28193  -2.52279
H     4.25666   1.20864  -1.57621
H     3.06866   1.23571  -2.92695
H    -0.89890  -0.90011   1.71719
H    -3.28055  -0.43402   1.73418
H    -5.31071   0.60537   0.72374
H    -5.11539   1.90504  -1.39181
H    -2.90421   2.17373  -2.50436
H    -0.86998   1.13816  -1.50114
