47
Generated by autodE on: 2022-06-19. E = -1056.798241 Ha. Imaginary frequency = -275.4 cm-1
C     5.33400   1.24415  -0.39632
C     4.36928   0.30603  -0.26563
C     4.56659  -0.92818   0.57408
C     3.08358   0.51232  -0.91502
C     2.03392  -0.35444  -0.87268
C     0.76991  -0.05994  -1.47800
C    -0.34771   1.63221   0.30230
C    -0.56713   2.80452  -0.44074
N    -0.73862   3.76024  -1.09447
C     0.76300   1.48088   1.20055
O     0.92787   0.56159   1.99993
O     1.65995   2.48251   1.04884
C     2.76720   2.50363   1.95550
O    -1.41349   0.77156   0.31401
C    -1.24429  -0.54197   0.39046
C    -2.45904  -1.33646   0.42967
C    -3.69696  -0.82439  -0.01221
C    -4.83374  -1.62810   0.01397
C    -4.75374  -2.94924   0.47410
C    -3.53046  -3.46374   0.91712
C    -2.38868  -2.66396   0.89736
C    -0.30106  -0.95486  -1.59537
C    -1.42001  -0.56376  -2.52839
C    -0.07445  -2.44033  -1.42675
H     5.16845   2.14346  -0.99680
H     6.30529   1.13581   0.09389
H     5.56394  -0.94119   1.03496
H     4.44953  -1.84418  -0.02804
H     3.80878  -0.97557   1.37380
H     2.96023   1.45339  -1.46128
H     2.13909  -1.29957  -0.33623
H     0.68770   0.90285  -1.98674
H     2.42605   2.76985   2.96779
H     3.27651   1.53218   1.98591
H     3.45269   3.27153   1.57804
H    -0.36489  -0.90596   0.91927
H    -3.75694   0.20467  -0.36864
H    -5.79031  -1.22582  -0.32680
H    -5.64826  -3.57607   0.49099
H    -3.46813  -4.49057   1.28378
H    -1.43372  -3.05706   1.25077
H    -2.35083  -1.10309  -2.30029
H    -1.61831   0.51806  -2.49157
H    -1.14492  -0.82075  -3.56690
H     0.46799  -2.82880  -2.30612
H     0.51805  -2.68690  -0.53475
H    -1.02932  -2.98002  -1.36554
