12
Generated by autodE on: 2022-06-17. E = -157.300304 Ha
C    -1.95809   0.06452  -0.13926
C    -0.50794   0.43315  -0.05479
C     0.50795  -0.43315   0.05473
C     1.95808  -0.06451   0.13930
H    -2.53539   0.51960   0.68517
H    -2.10499  -1.02632  -0.09921
H    -2.41221   0.43813  -1.07431
H    -0.27812   1.50747  -0.08668
H     0.27813  -1.50748   0.08659
H     2.53559  -0.52018  -0.68465
H     2.10503   1.02629   0.09858
H     2.41195  -0.43750   1.07474
