21
Generated by autodE on: 2022-06-17. E = -587.134113 Ha
C    -4.11132   0.41082  -0.70923
N    -2.94858   0.08386   0.09315
C    -1.70268   0.19613  -0.39919
O    -1.46106   0.56391  -1.56125
C    -0.57983  -0.14289   0.50079
C    -0.72124  -0.57819   1.83073
N    -0.85370  -0.93975   2.93396
N     0.63665  -0.00708  -0.05718
C     1.86081  -0.20123   0.38325
C     2.94301   0.07103  -0.56077
C     4.34297  -0.14992  -0.06647
O     2.68734   0.46078  -1.70348
H    -4.13761   1.48252  -0.96556
H    -4.11546  -0.16327  -1.64832
H    -5.01442   0.16292  -0.13900
H    -3.08257  -0.19376   1.06045
H     0.57479   0.32043  -1.04111
H     2.02621  -0.54691   1.40364
H     4.52449   0.45564   0.83657
H     4.47260  -1.20555   0.22495
H     5.06740   0.11277  -0.84782
