33
Generated by autodE on: 2022-06-17. E = -744.414070 Ha. Imaginary frequency = -401.3 cm-1
C     2.00563   2.55964  -1.90460
N     1.52441   1.73742  -0.81115
C     1.71677   0.40452  -0.79878
O     2.38481  -0.17856  -1.66489
C     1.10124  -0.37000   0.31697
C     1.90670  -1.43199   0.80609
N     2.53969  -2.33546   1.18532
N     0.14540   0.12483   1.17038
C    -0.96234   0.77099   0.73576
C    -2.11294   0.71753   1.65204
C    -3.29441   1.57608   1.30928
O    -2.09231  -0.02955   2.63117
C    -1.55574  -0.48137  -1.00085
C    -1.69050   0.54335  -2.09610
C    -0.54644  -1.44334  -1.01605
C    -0.69536  -2.70481  -0.21715
H     3.10579   2.63160  -1.91060
H     1.58602   3.56782  -1.80049
H     1.68704   2.13773  -2.86949
H     1.09630   2.19242  -0.01271
H    -0.05100  -0.45284   1.99401
H    -0.87446   1.60425   0.04530
H    -4.16465   1.28727   1.91263
H    -3.52984   1.50764   0.23581
H    -3.03919   2.62964   1.51528
H    -2.48406  -0.76527  -0.49339
H    -0.70724   0.85884  -2.47754
H    -2.26108   0.12752  -2.94514
H    -2.23113   1.44100  -1.75655
H     0.17033  -1.43967  -1.84088
H     0.24402  -3.26810  -0.13308
H    -1.43947  -3.37202  -0.68874
H    -1.06498  -2.48386   0.79868
