33
Generated by autodE on: 2022-06-05. E = -756.203989 Ha
C    -2.35207   0.34294  -2.89074
C    -1.97632   0.68613  -1.48047
O    -2.75704   1.18276  -0.69195
C    -0.51597   0.39312  -1.04129
C     0.35286   1.50709  -1.70993
C     0.47235   2.80739  -0.97499
O     0.86832   1.30604  -2.79012
C    -0.37307   0.41337   0.40974
C     0.02756   0.09966   1.50996
C     0.67793  -0.75182   2.50923
C    -0.31686  -1.57116   3.31665
F     1.40159   0.04022   3.42786
C     1.70821  -1.60593   1.73987
C     1.20565  -2.30686   0.46097
C     1.26756  -1.52750  -0.88415
C    -0.05158  -1.02084  -1.50488
H    -3.31371   0.80911  -3.14057
H    -1.57156   0.65643  -3.59875
H    -2.44772  -0.75154  -2.98094
H     1.16092   2.67269  -0.12492
H     0.86724   3.58283  -1.64376
H    -0.49994   3.10700  -0.55474
H    -1.02356  -0.90937   3.83787
H     0.22778  -2.17461   4.05816
H    -0.88479  -2.24429   2.65882
H     2.09158  -2.35755   2.44865
H     2.54869  -0.93855   1.48993
H     0.18455  -2.69179   0.62221
H     1.83484  -3.20197   0.34200
H     1.69790  -2.21303  -1.63033
H     1.98687  -0.69521  -0.80493
H    -0.86005  -1.73542  -1.28593
H     0.05832  -0.97817  -2.59646
