16
Generated by autodE on: 2022-06-05. E = -641.718208 Ha
C     4.12039  -0.22465   0.00077
O     2.75090   0.22218   0.03021
C     1.82373  -0.71451  -0.06209
O     2.00501  -1.90920  -0.17180
C     0.46222  -0.14380  -0.01340
N    -0.63454  -0.86229  -0.07670
C    -1.74070  -0.03601  -0.00765
C    -3.07187  -0.46992  -0.04709
N    -4.18892  -0.80664  -0.07794
C    -1.26349   1.30245   0.11018
O    -1.75871   2.39952   0.20459
O     0.17562   1.14279   0.09858
H     4.32660  -0.74387  -0.94562
H     4.73037   0.68096   0.08442
H     4.31322  -0.90042   0.84575
H    -0.64047  -1.88097  -0.17080
