40
Generated by autodE on: 2022-06-17. E = -769.896725 Ha
C    -5.03621   1.10491  -0.69155
C    -4.10339   0.13245  -0.74164
C    -4.44618  -1.27468  -1.15420
C    -2.71341   0.44087  -0.38667
C    -1.69075  -0.43372  -0.38878
C    -0.28621  -0.06409  -0.03893
C     0.35580  -0.99572   1.03066
C     0.19707  -0.41769   2.37834
N     0.07400   0.00167   3.45422
N     1.74369  -1.17837   0.61385
C     2.73902  -1.46657   1.62440
C     2.07611  -0.22923  -0.43623
C     2.57861   1.12139   0.08235
C     3.65660   1.79885  -0.71176
O     2.13632   1.59667   1.11827
C     0.73687  -0.09209  -1.22195
C     0.54901  -1.31960  -2.12310
C     0.61478   1.17625  -2.06596
H    -4.77530   2.12417  -0.39048
H    -6.08062   0.90842  -0.94978
H    -5.51473  -1.37117  -1.39285
H    -3.86309  -1.58152  -2.03849
H    -4.20309  -1.99264  -0.35325
H    -2.51309   1.47930  -0.09708
H    -1.86368  -1.47840  -0.66413
H    -0.28014   0.96038   0.35750
H    -0.16699  -1.96935   1.06733
H     2.92467  -0.63163   2.32813
H     3.69268  -1.71305   1.13307
H     2.42947  -2.34253   2.21587
H     2.85803  -0.65123  -1.08735
H     3.44941   1.74675  -1.79116
H     3.78317   2.84019  -0.38745
H     4.59834   1.24728  -0.54293
H    -0.40770  -1.25970  -2.66312
H     0.55985  -2.25814  -1.55166
H     1.35539  -1.36380  -2.87116
H     0.75567   2.09082  -1.47001
H     1.34893   1.17870  -2.88627
H    -0.39013   1.22526  -2.51313
