23
Generated by autodE on: 2022-06-17. E = -351.521383 Ha
C    -3.70206   0.16834  -0.75069
C    -2.57823   0.19527  -0.00089
C    -2.63473   0.42911   1.48714
C    -1.27494  -0.00391  -0.63175
C    -0.07751   0.00421   0.00613
C     1.18835  -0.19733  -0.66897
C     2.42245  -0.19968  -0.10456
C     2.68518   0.01269   1.35936
C     3.65049  -0.42341  -0.94082
H    -3.65791  -0.00162  -1.83093
H    -4.68978   0.31458  -0.30466
H    -3.67045   0.56136   1.83040
H    -2.05855   1.32556   1.77071
H    -2.19195  -0.41645   2.03934
H    -1.28845  -0.17228  -1.71535
H    -0.05529   0.17192   1.08639
H     1.12703  -0.36421  -1.75124
H     3.35512   0.87840   1.50550
H     3.21535  -0.85867   1.78284
H     1.77578   0.18041   1.95065
H     4.21353  -1.30380  -0.58203
H     4.34197   0.43445  -0.85848
H     3.40855  -0.57442  -2.00310
