17
Generated by autodE on: 2022-07-27. E = -418.319712 Ha
C     2.40610   0.08993  -1.65301
C     1.30404   0.13660  -0.61714
O     1.32341   1.00992   0.26948
C     0.32005  -0.90238  -0.68980
N    -0.68257  -1.06664   0.20758
C    -1.16599  -2.45666   0.37200
C    -1.26820  -0.13909   0.97209
C    -1.23061   1.24378   0.72338
N    -1.34207   2.39356   0.54635
H     2.33379  -0.77589  -2.32472
H     2.36241   1.01306  -2.25456
H     3.38296   0.08202  -1.14363
H     0.48134  -1.75055  -1.35231
H    -0.35535  -3.07116   0.78402
H    -1.45011  -2.84297  -0.61518
H    -2.03610  -2.47120   1.03550
H    -1.94462  -0.48986   1.75114
