64
Generated by autodE on: 2022-06-10. E = -1657.855860 Ha
C    21.16583   8.15842  31.46930
N    21.79834   9.25730  32.17290
C    21.41628  10.52869  31.94471
O    20.62627  10.86468  31.06407
N    22.05478  11.49502  32.76222
C    21.46853  12.81212  32.90161
C    21.04735  12.92713  34.18521
N    21.36386  11.68475  34.83648
C    20.54041  10.94320  35.65253
C    20.99881   9.54636  35.96289
O    19.51648  11.43684  36.11822
N    22.37697  11.05588  34.07070
C    23.70219  11.52640  34.48570
C    20.33879  14.03671  34.93332
C    21.06927  15.40374  34.80745
O    20.50076  16.46777  34.71702
O    22.38150  15.26496  34.95481
C    23.15695  16.46585  35.10862
C    20.49537  13.83625  36.47227
O    21.51438  13.45948  37.00616
O    19.41998  14.24705  37.13233
C    19.45620  14.11533  38.56205
C    18.84020  14.13527  34.53093
C    18.45384  13.77880  33.09396
C    19.03208  14.64397  31.95604
C    20.08253  13.97326  31.06703
C    21.49624  13.75638  31.68876
C    21.99867  15.10915  32.00298
N    22.36900  16.20622  32.07468
C    22.53705  13.24908  30.65296
C    23.87948  13.15090  31.05139
C    24.85804  12.71469  30.15940
C    24.50709  12.37305  28.84830
C    23.17515  12.47661  28.44425
C    22.19284  12.91431  29.34054
H    20.11073   8.02750  31.76378
H    21.19915   8.32937  30.38408
H    21.71108   7.23370  31.69592
H    22.29414   9.07749  33.04122
H    20.99158   8.93248  35.05048
H    20.31571   9.11647  36.70531
H    22.02714   9.54684  36.35287
H    23.78303  12.62642  34.45971
H    23.87938  11.17254  35.51008
H    24.44610  11.07979  33.81357
H    23.05587  17.09798  34.21790
H    22.82201  17.01180  36.00212
H    24.19482  16.13565  35.22785
H    18.50348  14.51697  38.92479
H    20.29806  14.68538  38.97943
H    19.55390  13.05500  38.83580
H    18.29324  13.45265  35.18994
H    18.50431  15.15273  34.77197
H    17.35543  13.85622  33.06600
H    18.67495  12.71661  32.90290
H    18.21008  14.92697  31.28105
H    19.42034  15.59608  32.35384
H    20.22679  14.59267  30.17040
H    19.72540  12.98942  30.74128
H    24.16075  13.41292  32.07378
H    25.89696  12.64120  30.48891
H    25.27047  12.03015  28.14600
H    22.88948  12.21447  27.42290
H    21.16058  12.97622  29.00125
