64
Generated by autodE on: 2022-06-10. E = -1657.763968 Ha. Imaginary frequency = -204.8 cm-1
C    19.83903   9.52278  31.98275
N    21.08458  10.20749  32.25665
C    21.47129  10.48772  33.51184
O    20.93878  10.01579  34.51492
N    22.65893  11.28933  33.53150
C    21.54306  13.30517  32.72127
C    21.07317  13.67352  33.80736
N    21.93280  12.41595  35.31237
C    21.85047  12.51596  36.66555
C    22.58125  11.46832  37.47349
O    21.10797  13.35061  37.18956
N    22.92097  11.89124  34.63697
C    24.24123  12.53760  34.69886
C    20.19377  14.58390  34.56023
C    20.97887  15.49126  35.52411
O    20.46409  16.27765  36.28688
O    22.29245  15.38040  35.34689
C    23.13523  16.13649  36.22621
C    19.09004  13.84161  35.33709
O    18.31691  14.38387  36.09461
O    19.03197  12.55612  35.01152
C    18.08858  11.73747  35.71574
C    19.48973  15.52689  33.52624
C    18.69337  14.80557  32.41994
C    19.32148  14.75915  31.01400
C    20.26152  13.61305  30.61961
C    21.68369  13.57320  31.26061
C    22.27907  14.92415  31.15555
N    22.73041  15.99027  31.07317
C    22.64487  12.59960  30.54245
C    23.99346  12.58409  30.92793
C    24.89078  11.69466  30.34035
C    24.44979  10.79737  29.36015
C    23.11076  10.80861  28.96989
C    22.21075  11.71189  29.55099
H    19.74583   9.38651  30.89832
H    19.81601   8.53505  32.46710
H    18.97276  10.10254  32.34366
H    21.56932  10.66902  31.49248
H    22.28040  10.46805  37.12687
H    22.32887  11.59397  38.53354
H    23.67054  11.55414  37.34248
H    24.99568  11.84051  34.32024
H    24.45514  12.83391  35.73103
H    24.19303  13.43443  34.06112
H    24.16410  15.89789  35.93365
H    22.94490  17.21340  36.11450
H    22.95490  15.83396  37.26773
H    17.06122  12.07860  35.52458
H    18.23583  10.72173  35.33255
H    18.29752  11.77247  36.79448
H    18.82790  16.17882  34.11317
H    20.26780  16.16802  33.08453
H    17.74132  15.34758  32.31606
H    18.41805  13.78680  32.73774
H    18.48919  14.69281  30.29542
H    19.81052  15.72553  30.80409
H    20.40591  13.67493  29.53150
H    19.79238  12.64105  30.83446
H    24.33989  13.26733  31.70595
H    25.93743  11.69611  30.65294
H    25.15010  10.09419  28.90374
H    22.75415  10.11466  28.20550
H    21.17077  11.69870  29.22744
