42
Generated by autodE on: 2022-06-19. E = -920.474723 Ha
C    -2.16308   2.06641  -1.57885
C    -2.03554   2.08597  -0.24498
C    -2.95045   2.89612   0.63218
C    -0.95393   1.32460   0.49851
C    -0.56461  -0.07112  -0.09224
C    -1.06648  -1.23389   0.70560
C    -1.87036  -2.22628   0.27383
C    -2.29225  -3.32995   1.20551
C    -2.40744  -2.34697  -1.12615
C     0.99419   0.07589  -0.18862
C     1.78293  -0.89390  -1.04624
O     2.79105  -0.51114  -1.64929
N     1.34397  -2.15920  -1.06908
C     2.04263  -3.19635  -1.80348
N     1.09662   1.47413  -0.62279
C     0.43000   2.03676   0.51857
C     0.51101   3.52194   0.69807
O     1.14274   1.38552   1.69087
C     1.49082   0.16342   1.26452
O     2.04900  -0.66537   1.94487
H    -1.50018   1.48514  -2.22346
H    -2.94580   2.64873  -2.07400
H    -3.68965   3.46071   0.04575
H    -3.48740   2.23822   1.33758
H    -2.37617   3.60786   1.24891
H    -1.27205   1.21208   1.54370
H    -0.90922  -0.13357  -1.12813
H    -0.74772  -1.25967   1.75427
H    -3.39185  -3.36047   1.29942
H    -1.85872  -3.21317   2.20939
H    -1.98835  -4.31268   0.80465
H    -3.50637  -2.44219  -1.10231
H    -2.15289  -1.49632  -1.77112
H    -2.02652  -3.26786  -1.60106
H     0.50141  -2.39356  -0.54785
H     3.07974  -3.30349  -1.44871
H     2.07418  -2.96915  -2.88071
H     1.51711  -4.14766  -1.65756
H     2.07566   1.76653  -0.66901
H     0.03885   3.81850   1.64443
H     1.56279   3.84357   0.70711
H    -0.00807   4.02191  -0.13073
