23
Generated by autodE on: 2022-06-19. E = -351.521383 Ha
C     3.64768  -0.98763  -0.13304
C     2.57643  -0.16417  -0.14532
C     2.73657   1.32720  -0.29544
C     1.22979  -0.71617  -0.01041
C     0.07780   0.00067  -0.00710
C    -1.23449  -0.59725   0.13108
C    -2.42799   0.04843   0.14669
C    -2.58868   1.53678   0.01994
C    -3.71344  -0.71458   0.29883
H     3.52807  -2.06994  -0.02337
H     4.66611  -0.60171  -0.23186
H     2.20162   1.69667  -1.18611
H     2.31146   1.86151   0.57045
H     3.79552   1.60672  -0.38777
H     1.16746  -1.80585   0.09675
H     0.13150   1.08751  -0.11379
H    -1.24904  -1.68909   0.23353
H    -3.11033   1.94125   0.90538
H    -3.22695   1.77972  -0.84794
H    -1.63882   2.07507  -0.09285
H    -4.26831  -0.37269   1.19106
H    -4.38073  -0.53278  -0.56287
H    -3.54628  -1.79814   0.38710
