19
Generated by autodE on: 2022-07-27. E = -568.935246 Ha
C     0.69461  -2.84693  -2.35218
N     0.45362  -1.96378  -1.23318
C     0.19933  -0.63817  -1.36370
O     0.14252  -0.04748  -2.45922
C    -0.01046   0.07716  -0.11834
N    -0.27862   1.44796  -0.09435
C    -0.42776   1.86582   1.13831
C    -0.71960   3.22907   1.61223
O    -0.27572   0.84700   1.97743
C     0.00100  -0.35773   1.21268
O     0.17558  -1.41976   1.79663
H     1.70708  -3.28144  -2.31248
H     0.59783  -2.27568  -3.28298
H    -0.03249  -3.67485  -2.37177
H     0.48178  -2.34411  -0.29045
H    -0.34556   2.03092  -0.92845
H    -1.65994   3.23247   2.18585
H    -0.80611   3.91352   0.75903
H     0.08516   3.57296   2.28118
