34
Generated by autodE on: 2022-07-27. E = -691.253402 Ha
C    -5.10875   1.36496   0.28037
N    -3.94162   0.64256   0.73687
C    -2.78808   0.62865  -0.02271
O    -2.84357   1.08507  -1.19743
C    -1.61328   0.09280   0.61090
C    -1.60484  -0.33309   2.05310
N    -0.42432  -0.03338  -0.11607
C    -0.49885  -0.65375  -1.45331
C     0.75193   0.31943   0.41022
C     0.78263   1.31657   1.51894
C     2.01502  -0.26480  -0.07312
C     3.14746   0.54701  -0.29165
C     4.34801  -0.00738  -0.73483
C     4.45267  -1.38573  -0.95237
C     3.34343  -2.20575  -0.72050
C     2.13850  -1.65400  -0.28573
H    -4.93114   2.45187   0.17750
H    -5.92425   1.21645   1.00095
H    -5.44340   0.99458  -0.70019
H    -3.85793   0.50102   1.73545
H    -2.51773  -0.90547   2.29100
H    -0.75450  -1.00519   2.24446
H    -1.54021   0.48553   2.79591
H    -0.60194  -1.74298  -1.36068
H     0.39440  -0.40788  -2.03731
H    -1.38401  -0.24093  -1.94481
H    -0.08358   1.99295   1.43986
H     1.71537   1.89569   1.47816
H     0.74235   0.85310   2.51991
H     3.07961   1.62536  -0.13601
H     5.20810   0.64216  -0.91374
H     5.39537  -1.81871  -1.29471
H     3.41875  -3.28529  -0.87133
H     1.28826  -2.30792  -0.08713
