34
Generated by autodE on: 2022-06-04. E = -691.254484 Ha
C     4.09212   0.97557   1.72007
N     3.12798   0.08928   1.10742
C     2.31273   0.53604   0.09140
O     2.53035   1.67626  -0.39914
C     1.25633  -0.34668  -0.32947
C     0.89767  -1.57721   0.44419
N     0.43675   0.05807  -1.38460
C     1.08704   0.56651  -2.60948
C    -0.88362  -0.15082  -1.41945
C    -1.58546  -0.17324  -2.74692
C    -1.67071  -0.28055  -0.18456
C    -1.35726   0.48257   0.96331
C    -2.17133   0.44534   2.09204
C    -3.30646  -0.37580   2.12455
C    -3.62074  -1.15005   1.00448
C    -2.81914  -1.09827  -0.13766
H     4.80670   1.36152   0.97691
H     4.65422   0.41900   2.48175
H     3.62122   1.84980   2.20639
H     2.84941  -0.72820   1.63412
H     0.35660  -1.39167   1.39394
H     0.25360  -2.23517  -0.15858
H     1.80561  -2.15135   0.69549
H     0.64101   1.52139  -2.91739
H     0.95598  -0.16815  -3.41610
H     2.14996   0.70562  -2.41421
H    -2.65276  -0.38292  -2.61949
H    -1.50340   0.79823  -3.26225
H    -1.16093  -0.93233  -3.42580
H    -0.47378   1.12318   0.95679
H    -1.91692   1.06152   2.95790
H    -3.93547  -0.41239   3.01689
H    -4.49772  -1.80182   1.01663
H    -3.08121  -1.71291  -1.00057
