50
Generated by autodE on: 2022-06-04. E = -3611.682617 Ha. Imaginary frequency = -262.2 cm-1
C    -5.17731  -0.62568   0.79420
N    -3.98331  -1.00479   1.51952
C    -2.89112  -1.50703   0.85531
O    -3.00906  -1.80190  -0.35393
C    -1.65785  -1.57582   1.64352
C    -1.80996  -1.48859   3.15023
C    -0.99392   0.69820   0.97099
C    -1.61233   0.91049  -0.42652
O    -0.71246   0.12331  -1.23785
C     0.48110   0.79134  -0.79604
C     0.07701   2.24809  -1.11468
Br    1.32108   3.60059  -1.52142
C    -1.23684   2.34776  -0.87412
C    -2.17174   3.49829  -0.84666
C     0.35962   0.61425   0.72546
C     0.74375  -1.73310   1.37992
C     1.09961  -1.20569   2.75056
C     1.89850  -2.25691   0.60067
C     3.03181  -2.76821   1.26728
C     4.15261  -3.20630   0.55895
C     4.17965  -3.13244  -0.83614
C     3.06855  -2.62046  -1.51471
C     1.94536  -2.19221  -0.80847
N    -0.51943  -2.15169   1.08170
C    -0.70712  -3.15253   0.00644
H    -5.01840   0.24904   0.13741
H    -5.96801  -0.37658   1.51447
H    -5.52819  -1.45505   0.16373
H    -3.84905  -0.58987   2.43284
H    -2.74860  -1.97813   3.45689
H    -1.83912  -0.45819   3.54605
H    -1.01088  -2.02463   3.66840
H    -1.48043   1.03135   1.88632
H    -2.65382   0.61974  -0.58767
H     1.38098   0.41579  -1.29348
H    -3.04785   3.31671  -1.49210
H    -1.68179   4.42842  -1.16936
H    -2.56041   3.64841   0.17671
H     1.16410   0.88945   1.40223
H     0.38033  -0.48315   3.13858
H     1.17977  -2.03070   3.48045
H     2.07748  -0.71127   2.70390
H     3.03584  -2.84293   2.35503
H     5.01000  -3.60854   1.10401
H     5.05917  -3.46793  -1.39060
H     3.07665  -2.54818  -2.60493
H     1.09804  -1.79057  -1.35924
H     0.13963  -3.84571   0.02220
H    -0.79689  -2.69444  -0.98175
H    -1.62161  -3.71337   0.21326
