33
Generated by autodE on: 2022-07-27. E = -765.327410 Ha
C    -4.12614   1.77662  -0.51153
N    -2.83881   1.17227  -0.24372
C    -2.73922   0.00705   0.47079
O    -3.77612  -0.51834   0.93079
C    -1.40564  -0.54964   0.62402
C    -1.08526  -1.87410   1.05553
C    -2.19420  -2.78373   1.55210
O     0.08791  -2.32068   1.05112
N    -0.28036   0.29015   0.33423
C    -0.08613   1.47179   1.18558
C     0.62641  -0.16721  -0.49184
C     1.98552   0.27511  -0.74060
C     2.56053  -0.20416  -1.94138
C     3.85881   0.14278  -2.30245
C     4.62130   0.95685  -1.45844
C     4.07775   1.41629  -0.25329
C     2.77357   1.08712   0.10763
H    -4.69047   1.92609   0.42126
H    -4.75131   1.16121  -1.18305
H    -3.96882   2.75508  -0.98430
H    -2.04455   1.49124  -0.78564
H    -2.70531  -2.35583   2.42608
H    -2.96436  -2.92760   0.78041
H    -1.74884  -3.75255   1.81710
H     0.40753   2.27381   0.62368
H     0.51478   1.19837   2.06499
H    -1.06705   1.81604   1.52443
H     0.28175  -0.99310  -1.11547
H     1.96806  -0.85188  -2.59114
H     4.28119  -0.22859  -3.23832
H     5.64357   1.22577  -1.73382
H     4.67865   2.03586   0.41559
H     2.39107   1.44183   1.06066
