33
Generated by autodE on: 2022-06-23. E = -765.333077 Ha
C    -3.88768  -1.95523  -1.35528
N    -3.31390  -0.93210  -0.51332
C    -1.99039  -0.65667  -0.52859
O    -1.20920  -1.26578  -1.29626
C    -1.53508   0.39199   0.39722
C    -2.34671   1.03837   1.35884
C    -1.72307   1.99904   2.35730
O    -3.59227   0.83713   1.46698
N    -0.15585   0.74753   0.24342
C     0.15272   2.10913  -0.21032
C     0.73140  -0.21165   0.30536
C     2.13040  -0.22782  -0.07791
C     2.89022  -1.28288   0.47998
C     4.24682  -1.41387   0.19954
C     4.86767  -0.50940  -0.66820
C     4.12297   0.52098  -1.25364
C     2.76906   0.67055  -0.96346
H    -3.79158  -1.71365  -2.42792
H    -4.95571  -2.05306  -1.12058
H    -3.40491  -2.93429  -1.19612
H    -3.86526  -0.39025   0.15942
H    -2.16648   1.79391   3.34334
H    -0.63056   1.93114   2.43652
H    -1.99325   3.03495   2.09251
H    -0.64474   2.77822   0.12343
H     0.18174   2.13315  -1.30952
H     1.11227   2.44446   0.20132
H     0.35873  -1.13409   0.75292
H     2.39853  -1.99622   1.14498
H     4.81979  -2.22687   0.64999
H     5.93073  -0.61256  -0.89735
H     4.60243   1.21520  -1.94679
H     2.21582   1.46800  -1.45209
