47
Generated by autodE on: 2022-06-23. E = -1035.990201 Ha. Imaginary frequency = -397.1 cm-1
C    -3.60550   2.44357   0.79261
N    -2.41700   1.61663   0.79730
C    -2.46337   0.33192   1.23379
O    -3.50964  -0.11657   1.72874
C    -1.23314  -0.48579   1.03383
C    -1.19928  -1.89935   1.42995
C    -2.48044  -2.68478   1.58929
O    -0.12403  -2.48642   1.61562
N    -0.00380   0.20830   1.02372
C     0.23572   1.37938   1.87786
C     0.92835  -0.22237   0.12295
C     2.23528   0.44052  -0.05040
C     3.39062  -0.36062  -0.05926
C     4.64800   0.20600  -0.27539
C     4.76424   1.57961  -0.50815
C     3.61721   2.38130  -0.53143
C     2.36140   1.81761  -0.30883
C    -0.20241  -0.04269  -1.60827
C     0.84807  -0.46077  -2.52547
O     1.55010   0.31551  -3.16830
C    -1.32819  -0.88340  -1.31515
C    -1.18412  -2.37446  -1.47504
C    -2.71061  -0.36911  -1.61095
H    -4.05619   2.48282   1.79521
H    -4.37047   2.06192   0.09369
H    -3.32863   3.46180   0.49055
H    -1.63846   1.91110   0.21971
H    -2.23007  -3.75324   1.53161
H    -2.91826  -2.47186   2.57649
H    -3.23998  -2.42341   0.84324
H     0.09159   2.34194   1.36899
H    -0.44280   1.32940   2.73661
H     1.26652   1.33729   2.25340
H     0.97833  -1.30438   0.02115
H     3.29545  -1.43581   0.11056
H     5.53810  -0.42713  -0.26791
H     5.74649   2.02477  -0.68318
H     3.70190   3.45150  -0.73333
H     1.47153   2.44576  -0.35849
H    -0.39620   1.03568  -1.64116
H     1.02177  -1.55757  -2.60522
H    -0.27394  -2.77687  -1.01045
H    -1.14072  -2.61785  -2.55140
H    -2.05412  -2.90180  -1.06410
H    -2.95807  -0.64407  -2.65301
H    -3.47369  -0.83342  -0.96913
H    -2.78293   0.72140  -1.53087
