59
Generated by autodE on: 2022-06-11. E = -1972.470486 Ha
C     2.19966  -7.13393  -1.77638
O     2.67017  -6.68056  -0.49329
C     1.75088  -6.32557   0.38465
O     0.55857  -6.31203   0.15562
C     2.34157  -5.84396   1.73094
C     2.22652  -4.31272   1.50115
O     3.07355  -3.65915   0.93197
O     1.06308  -3.83758   1.91501
C     0.81998  -2.43270   1.74259
C     3.82498  -6.29430   1.90054
C     4.38406  -6.38822   3.32212
C     4.59597  -5.09252   4.11225
C     3.40122  -4.15030   4.31454
C     2.15656  -4.79459   4.90367
Cl    0.90156  -3.45797   5.23468
C     1.44985  -5.87213   4.15800
C     1.48151  -6.31086   2.88516
C     0.41852  -7.43573   2.82810
C     0.56321  -8.52259   1.76158
C    -0.66314  -9.07880   1.11613
O     1.68770  -8.91590   1.50545
C    -0.91353  -6.63252   2.96487
O    -1.77630  -6.39610   2.15808
O    -0.93799  -6.19565   4.23605
C     0.35208  -6.70154   4.85028
C     0.24809  -6.69332   6.34284
C    -0.83119  -6.09713   7.00434
C    -0.87976  -6.09712   8.40098
C     0.14782  -6.68637   9.14228
C     1.22972  -7.27822   8.48222
C     1.28175  -7.28132   7.08734
N     0.52863  -7.98602   4.20626
C    -0.43434  -9.02394   4.57622
H     1.60933  -6.34645  -2.26453
H     1.58584  -8.03637  -1.64783
H     3.09853  -7.36055  -2.35992
H     1.58486  -1.84942   2.27344
H     0.82845  -2.17525   0.67415
H    -0.16804  -2.24659   2.17674
H     4.44305  -5.62819   1.28227
H     3.89548  -7.29633   1.46202
H     5.37016  -6.87179   3.22866
H     3.77235  -7.09133   3.90634
H     5.38480  -4.49840   3.62128
H     4.99197  -5.37043   5.10322
H     3.70720  -3.36181   5.01774
H     3.16211  -3.62042   3.38760
H     2.38309  -5.16521   5.91167
H    -0.39780  -9.94642   0.49926
H    -1.41519  -9.35193   1.87172
H    -1.11470  -8.29230   0.49257
H    -1.62928  -5.63099   6.42830
H    -1.72591  -5.63106   8.91082
H     0.10759  -6.68343  10.23400
H     2.03757  -7.73908   9.05487
H     2.12924  -7.73944   6.57458
H    -1.48995  -8.74462   4.40939
H    -0.21485  -9.93734   4.00765
H    -0.30148  -9.25404   5.64097
