27
Generated by autodE on: 2022-06-11. E = -744.685982 Ha
C     4.31967  -0.41098   0.55213
C     3.08243  -0.94934  -0.13175
O     3.15284  -1.94600  -0.86576
C     1.85158  -0.25061   0.13023
C     1.64571   0.83694   1.01326
O     2.33413   1.53028   1.73892
O     0.23053   1.07809   0.95711
C    -0.33097   0.21475   0.11088
C    -1.76913   0.27326  -0.11390
C    -2.40378   1.52955  -0.04244
C    -3.78055   1.62588  -0.23028
C    -4.53850   0.47602  -0.47824
C    -3.91601  -0.77516  -0.52897
C    -2.53796  -0.88393  -0.34609
N     0.58647  -0.57811  -0.41375
C     0.36586  -1.54740  -1.48730
H     5.18100  -1.02255   0.25305
H     4.49544   0.64127   0.28020
H     4.20551  -0.44048   1.64699
H    -1.80934   2.42389   0.14924
H    -4.26525   2.60325  -0.18433
H    -5.61806   0.55468  -0.62448
H    -4.50795  -1.67609  -0.70255
H    -2.06994  -1.86815  -0.35206
H     0.33740  -2.56679  -1.08205
H     1.19181  -1.46970  -2.19894
H    -0.57884  -1.31588  -1.98872
