32
Generated by autodE on: 2022-06-11. E = -1227.740513 Ha
C    -0.41685  -1.86243   3.74762
O    -0.55222  -1.44205   2.37885
C    -0.52456  -0.13363   2.14550
O    -0.38282   0.71149   2.99827
C    -0.71132   0.15921   0.64378
C    -2.17142  -0.17204   0.31673
O    -3.07873   0.03932   1.09313
O    -2.32276  -0.64955  -0.91055
C    -3.66894  -0.91438  -1.34536
C     0.27700  -0.57132  -0.14302
C     1.29451  -0.74273  -0.77847
C     2.51672  -0.38594  -1.47187
Cl    2.19290  -0.35072  -3.29189
C     2.94449   1.00737  -0.97856
C     1.83299   2.07360  -0.91018
C     0.97566   2.16379   0.38444
C    -0.48682   1.67600   0.33610
H    -1.24198  -1.45833   4.35108
H     0.54387  -1.51962   4.15686
H    -0.45644  -2.95725   3.73075
H    -4.26025   0.01202  -1.33194
H    -4.13780  -1.66326  -0.69188
H    -3.58255  -1.29838  -2.36780
H     3.32675  -1.11589  -1.35531
H     3.38473   0.86274   0.02295
H     3.75852   1.35054  -1.63512
H     1.17945   1.97334  -1.79306
H     2.33800   3.04402  -1.03011
H     1.50244   1.67803   1.22173
H     0.91642   3.22825   0.65863
H    -1.09276   2.23356   1.06407
H    -0.90995   1.87219  -0.66109
