59
Generated by autodE on: 2022-06-11. E = -1972.412144 Ha. Imaginary frequency = -436.4 cm-1
C     2.77264  -9.15214   0.76746
O     2.66384  -7.89542   1.45800
C     2.26963  -6.84367   0.75332
O     1.97294  -6.88758  -0.41992
C     2.29109  -5.55941   1.60945
C     1.66786  -4.42012   0.79166
O     2.14002  -4.00884  -0.24490
O     0.58748  -3.91669   1.37115
C    -0.09163  -2.84757   0.69526
C     3.81087  -5.17347   1.81762
C     4.53711  -5.92451   2.94524
C     4.78637  -5.09109   4.21242
C     3.61898  -4.27776   4.78316
C     2.42108  -5.09338   5.26494
Cl    1.30897  -3.94239   6.19705
C     1.64488  -5.71557   4.16736
C     1.62741  -5.76276   2.91216
C    -0.47620  -7.03694   2.72763
C    -0.65117  -7.67029   1.41235
C    -1.21185  -6.81446   0.30743
O    -0.37005  -8.85100   1.21197
C    -1.17554  -5.82738   3.14367
O    -1.87124  -5.01874   2.56843
O    -0.93312  -5.71844   4.50135
C    -0.03451  -6.70328   4.85838
C     0.07989  -6.97973   6.30617
C    -0.91939  -6.51037   7.17479
C    -0.82734  -6.75250   8.54468
C     0.26310  -7.45828   9.06373
C     1.26322  -7.92086   8.20407
C     1.17646  -7.68258   6.83140
N    -0.11040  -7.68123   3.89841
C     0.69251  -8.89464   3.95511
H     3.55827  -9.09048   0.00105
H     1.81316  -9.41307   0.30455
H     3.04146  -9.88844   1.53279
H    -0.41929  -3.17722  -0.30070
H    -0.95718  -2.60443   1.32060
H     0.57245  -1.97712   0.59802
H     3.84558  -4.08963   1.99982
H     4.30333  -5.33366   0.84797
H     5.51708  -6.25549   2.56827
H     3.99522  -6.84449   3.19743
H     5.58890  -4.36468   3.99946
H     5.17914  -5.75774   4.99865
H     3.99371  -3.70700   5.64595
H     3.25787  -3.54084   4.04903
H     2.72433  -5.83340   6.01501
H    -1.06495  -7.33342  -0.64791
H    -2.29025  -6.66718   0.48306
H    -0.75595  -5.81735   0.28148
H    -1.76532  -5.95313   6.77241
H    -1.61127  -6.38614   9.21119
H     0.33531  -7.64349  10.13786
H     2.12248  -8.46443   8.60254
H     1.97760  -8.02391   6.17663
H     0.37079  -9.55851   3.15152
H     1.75717  -8.64937   3.82139
H     0.54184  -9.38284   4.92420
