30
Generated by autodE on: 2022-06-23. E = -838.112804 Ha
C     4.88514   0.52421   1.64140
N     3.57422  -0.03066   1.36927
C     2.66826   0.64919   0.63626
O     2.89491   1.76753   0.15540
C     1.36045  -0.01143   0.43505
C     1.06008  -1.31403   0.86264
N     0.88813  -2.41013   1.23328
O     0.53378   0.71438  -0.30424
C    -0.68352   0.61872  -0.74302
C    -1.01544   1.70049  -1.70566
C     0.07312   2.68221  -2.04488
O    -2.13764   1.75547  -2.19489
C    -1.64608  -0.38102  -0.29573
C    -1.81371  -0.64266   1.08091
C    -2.78004  -1.55133   1.50669
C    -3.57938  -2.21714   0.57160
C    -3.42244  -1.95941  -0.79511
C    -2.47156  -1.03923  -1.23055
H     5.46525  -0.20693   2.21692
H     5.42400   0.74833   0.70736
H     4.81467   1.45773   2.22298
H     3.33502  -0.93563   1.76181
H     0.88776   2.16607  -2.57817
H     0.51682   3.11265  -1.13508
H    -0.34446   3.47268  -2.68061
H    -1.20723  -0.11242   1.81698
H    -2.90949  -1.74121   2.57419
H    -4.32903  -2.93646   0.90895
H    -4.04542  -2.47969  -1.52577
H    -2.34814  -0.83817  -2.29442
