30
Generated by autodE on: 2022-07-27. E = -838.109044 Ha
C    -1.89492   2.58137   2.96170
N    -1.46326   1.71617   1.88261
C    -2.17568   1.60931   0.74237
O    -3.23458   2.22563   0.54164
C    -1.64468   0.70296  -0.29018
C    -2.28494   0.63826  -1.53944
N    -2.81920   0.66087  -2.57882
O    -0.47281   0.14350  -0.02116
C     0.36727  -0.69525  -0.56375
C    -0.09527  -1.57213  -1.67137
C     0.89260  -2.18915  -2.62036
O    -1.30083  -1.77672  -1.77721
C     1.66023  -0.73871   0.10657
C     2.49184  -1.87938   0.06406
C     3.70973  -1.88815   0.74084
C     4.12258  -0.76978   1.47254
C     3.30426   0.36488   1.52787
C     2.08737   0.38494   0.85349
H    -1.14841   2.54332   3.76414
H    -1.99679   3.62395   2.62158
H    -2.86837   2.26315   3.36905
H    -0.61958   1.16395   1.99322
H     1.83972  -1.63787  -2.67077
H     1.10251  -3.22793  -2.31674
H     0.42029  -2.22735  -3.61252
H     2.17787  -2.77491  -0.46925
H     4.33680  -2.78146   0.70492
H     5.07931  -0.78204   1.99924
H     3.62222   1.24328   2.09362
H     1.46213   1.27819   0.88426
