53
Generated by autodE on: 2022-06-23. E = -1189.643911 Ha. Imaginary frequency = -200.5 cm-1
C     1.79575  -1.68768   2.32390
C     0.67173  -1.05931   1.92364
C     0.01996  -0.00012   2.77197
C     0.06023  -1.41943   0.63961
C    -1.27154  -1.13808   0.33227
C    -1.99079  -1.84243  -0.68548
C    -3.29714  -1.64898  -1.02519
C    -3.93315  -2.47461  -2.10175
C    -4.19627  -0.64357  -0.37272
C    -0.83657   1.35669  -0.77787
C    -1.49813   0.87847  -1.91291
N    -2.08877   0.45872  -2.83363
C    -1.49932   2.36072   0.05559
O    -2.72336   2.56296  -0.05220
N    -0.72683   3.03765   0.93706
C    -1.31225   3.87090   1.96784
O     0.48629   1.15104  -0.54401
C     1.17658   0.04441  -0.80421
C     0.98529  -0.63217  -2.15650
C     1.13456   0.27642  -3.34999
O     0.87226  -1.83678  -2.27111
C     2.53226   0.02762  -0.25717
C     3.42658  -1.01026  -0.59125
C     4.70038  -1.05294  -0.02670
C     5.10808  -0.06437   0.87434
C     4.22577   0.96715   1.21536
C     2.94834   1.01240   0.66340
H     2.26432  -2.45929   1.70799
H     2.27249  -1.44654   3.27774
H     0.62730   0.22142   3.66060
H    -0.12481   0.93265   2.20903
H    -0.97979  -0.31921   3.11133
H     0.53597  -2.23707   0.09402
H    -1.82653  -0.46745   0.98770
H    -1.42655  -2.59041  -1.24956
H    -4.81325  -3.01427  -1.70896
H    -3.23428  -3.20561  -2.53274
H    -4.30603  -1.82369  -2.91125
H    -5.02376  -1.15893   0.14657
H    -3.68513   0.01029   0.34286
H    -4.66155  -0.00453  -1.14111
H     0.24258   2.75757   1.03343
H    -1.86823   3.27479   2.71217
H    -2.00810   4.59989   1.52837
H    -0.51087   4.41563   2.48247
H     0.51214  -0.09032  -4.17718
H     2.19551   0.20900  -3.64941
H     0.91379   1.32871  -3.13412
H     3.12144  -1.79478  -1.28358
H     5.37960  -1.86520  -0.29428
H     6.10820  -0.09880   1.31201
H     4.53421   1.74086   1.92187
H     2.26797   1.81603   0.94192
