11
Generated by autodE on: 2022-05-29. E = -376.804969 Ha
C    -2.76721  -0.12422   0.03616
O    -1.49299  -0.57516   0.51133
C    -0.41060   0.01522  -0.02794
O    -0.46669   0.89026  -0.87835
C     0.80522  -0.53492   0.54335
N     1.94997  -0.06382   0.12229
N     2.93102   0.35536  -0.25380
H    -3.51661  -0.71091   0.58057
H    -2.86444  -0.29948  -1.04551
H    -2.90356   0.94744   0.24402
H     0.83529  -1.31709   1.30155
