39
Generated by autodE on: 2022-06-18. E = -931.513583 Ha
C     3.75112  -1.78422   1.71630
N     3.01400  -0.85003   0.89505
C     2.34824  -1.18556  -0.21636
O     2.31719  -2.32702  -0.69841
C     1.60593  -0.03210  -0.91788
C     2.17682   0.08299  -2.33646
N     1.75871   1.24957  -0.17555
C     0.42653   1.83499   0.04863
C     0.43949   3.28787  -0.09612
N     0.45394   4.44104  -0.22714
C    -0.50227   1.11839  -0.97653
C     0.07372  -0.30451  -0.93896
C    -0.43464  -1.09214   0.28155
C    -1.91295  -0.89021   0.49983
C    -2.73234  -1.82964   1.27651
N    -2.08792  -2.89585   1.81716
O    -3.95918  -1.68111   1.45797
C    -2.52634   0.22852   0.01595
N    -1.92068   1.19202  -0.72222
C    -2.60537   2.43843  -1.02487
H     3.23114  -1.98202   2.66816
H     4.75284  -1.39102   1.94617
H     3.85701  -2.73187   1.17359
H     2.90357   0.12369   1.17379
H     3.23180   0.39765  -2.29633
H     2.12472  -0.88854  -2.84569
H     1.61473   0.82373  -2.92358
H     2.33532   1.88834  -0.71981
H     0.06217   1.61599   1.06724
H    -0.31199   1.56491  -1.96298
H    -0.20543  -0.84138  -1.85486
H     0.12812  -0.79907   1.18547
H    -0.19760  -2.15251   0.11404
H    -1.09106  -3.03885   1.72112
H    -2.62232  -3.55372   2.37345
H    -3.59144   0.38157   0.20187
H    -2.25330   2.83075  -1.99030
H    -3.68701   2.25848  -1.09285
H    -2.42981   3.21032  -0.25560
