20
Generated by autodE on: 2022-06-18. E = -457.715327 Ha
C    -3.13410   0.19264  -0.49213
N    -1.79351  -0.29720  -0.21574
C    -1.61957  -1.61211   0.23421
C    -0.42054  -2.10735   0.57922
C     0.85341  -1.30114   0.51804
C     0.56379   0.11402   0.04493
C     1.63831   1.11097  -0.08695
N     2.88557   0.68882   0.24069
O     1.44745   2.28213  -0.47357
C    -0.69930   0.51223  -0.27733
H    -3.64728  -0.46636  -1.20970
H    -3.07161   1.19845  -0.92598
H    -3.74215   0.24332   0.42687
H    -2.53413  -2.20600   0.28047
H    -0.36442  -3.14496   0.91622
H     1.34602  -1.29330   1.51196
H     1.58730  -1.79934  -0.14856
H     3.07789  -0.25017   0.56526
H     3.65493   1.34556   0.16955
H    -0.87861   1.53516  -0.61215
