19
Generated by autodE on: 2022-07-27. E = -473.733879 Ha
C     0.51478  -2.91845   2.21607
N     0.76971  -2.23368   0.96626
C     0.21468  -1.02491   0.70461
O    -0.53092  -0.46921   1.53648
C     0.54442  -0.42917  -0.59589
C     1.43997  -1.11361  -1.58265
N     0.04262   0.75961  -0.92983
C    -0.77341   1.63767  -0.30123
C    -1.11349   2.83372  -0.94043
N    -1.41616   3.84603  -1.45126
H    -0.55944  -3.12570   2.35031
H     1.05948  -3.87039   2.21619
H     0.84897  -2.31992   3.07917
H     1.37491  -2.67471   0.28425
H     1.02947  -2.09038  -1.89148
H     2.44071  -1.29993  -1.15653
H     1.57012  -0.50228  -2.48749
H     0.34225   1.06980  -1.85918
H    -1.14179   1.39159   0.68895
