39
Generated by autodE on: 2022-06-18. E = -931.442303 Ha. Imaginary frequency = -400.5 cm-1
C     1.97625  -1.93726   1.99574
N     1.97533  -1.48288   0.61977
C     1.65269  -0.21012   0.30163
O     1.43024   0.62750   1.19424
C     1.60288   0.11945  -1.15297
C     2.31192  -0.77632  -2.13168
N     1.55295   1.43911  -1.48867
C     0.69216   2.32334  -0.89467
C     0.42037   3.54799  -1.53329
N     0.11228   4.54704  -2.06062
C    -1.21020   0.91963  -1.13972
C    -0.58399  -0.26582  -1.53375
C    -0.90371  -1.56687  -0.82910
C    -1.33865  -1.30305   0.59699
C    -1.34321  -2.35397   1.62015
N    -1.05647  -3.61179   1.19738
O    -1.58768  -2.13586   2.82654
C    -1.79616  -0.06886   0.95362
N    -1.87202   0.98949   0.09815
C    -2.33315   2.28824   0.55851
H     1.07597  -1.58909   2.52094
H     2.85585  -1.56431   2.54703
H     1.99387  -3.03353   2.00768
H     2.13681  -2.16127  -0.11430
H     1.86864  -1.78381  -2.13253
H     3.38500  -0.88345  -1.89919
H     2.21536  -0.37925  -3.15285
H     1.74471   1.62090  -2.47296
H     0.58184   2.26192   0.18241
H    -1.52311   1.66781  -1.86470
H    -0.35365  -0.34506  -2.59783
H    -0.03207  -2.24164  -0.85470
H    -1.69574  -2.10512  -1.39170
H    -1.05148  -4.36300   1.87826
H    -0.90320  -3.83830   0.22315
H    -2.14892   0.11312   1.97010
H    -1.49446   2.93196   0.87483
H    -2.87132   2.80175  -0.25183
H    -3.01784   2.15794   1.40618
