37
Generated by autodE on: 2022-10-21. E = -879.833140 Ha
C    -2.58762   2.28945  -0.28307
O    -1.96233   1.13526  -0.82552
C    -0.89791   0.60451  -0.08101
C    -1.32534   0.05901   1.33746
C    -2.56100  -0.79722   1.10966
C    -2.10594  -1.91734   0.53544
C    -0.60110  -1.72876   0.41347
O    -0.31191  -0.92446   1.56867
C    -0.33280  -0.70410  -0.75049
C    -0.98544  -1.10245  -2.06595
C     1.18131  -0.39239  -0.97467
C     2.04810  -1.63097  -0.76550
C     2.76661  -1.80866   0.53938
O     2.10072  -2.46501  -1.65723
N     1.51807   0.73852  -0.11992
C     2.68824   1.48114  -0.56637
C     0.32279   1.57045  -0.05342
C     0.36773   2.46302   1.11010
N     0.40951   3.16924   2.02990
H    -3.44954   2.51557  -0.92551
H    -1.91253   3.16287  -0.28567
H    -2.94721   2.12172   0.74617
H    -1.35344   0.79756   2.14512
H    -3.58870  -0.49263   1.30480
H    -2.66894  -2.76438   0.14477
H     0.00665  -2.63953   0.39218
H    -2.05738  -1.30461  -1.94485
H    -0.86780  -0.30559  -2.81369
H    -0.49683  -2.00879  -2.45537
H     1.29822  -0.12318  -2.04311
H     3.16622  -2.82896   0.60680
H     2.09814  -1.58815   1.38302
H     3.59864  -1.08807   0.60057
H     3.56939   0.82549  -0.59587
H     2.90435   2.30134   0.13434
H     2.54434   1.91551  -1.57743
H     0.22342   2.21845  -0.95027
