37
Generated by autodE on: 2022-10-21. E = -879.749836 Ha. Imaginary frequency = -255.6 cm-1
C    -2.89900   1.89104  -0.68987
O    -2.20915   0.71568  -1.10324
C    -1.30290   0.18677  -0.23810
C    -1.47399   0.18126   1.29783
C    -2.47509  -0.95518   1.61344
C    -1.81072  -2.08393   1.33862
C    -0.41713  -1.62167   0.84889
O    -0.23846  -0.44329   1.66110
C    -0.62978  -0.99227  -0.53852
C    -0.91450  -1.81726  -1.75090
C     1.58375  -0.12255  -1.09722
C     2.39644  -1.30308  -0.89525
C     2.52236  -2.23410  -2.08045
O     2.94600  -1.59511   0.17702
N     1.54611   0.95193  -0.27194
C     2.36384   1.04602   0.94435
C     0.49232   1.79826  -0.45070
C     0.27754   2.88204   0.42361
N     0.02413   3.75423   1.16100
H    -3.56633   2.17063  -1.51537
H    -2.20059   2.71905  -0.49249
H    -3.50323   1.70481   0.21295
H    -1.61541   1.14147   1.80478
H    -3.50643  -0.81456   1.93555
H    -2.15646  -3.11678   1.37340
H     0.41731  -2.32274   0.96314
H    -1.94204  -2.22674  -1.69363
H    -0.85577  -1.21853  -2.67222
H    -0.22413  -2.66712  -1.84480
H     1.14138   0.03467  -2.07841
H     1.86083  -1.97161  -2.91507
H     3.56638  -2.19261  -2.43524
H     2.32881  -3.26843  -1.75764
H     1.95469   0.40292   1.73077
H     3.38944   0.74263   0.71698
H     2.36342   2.08822   1.28314
H     0.06657   1.86424  -1.45125
