23
Generated by autodE on: 2022-06-19. E = -351.521385 Ha
C     3.71347  -0.69832  -0.13771
C     2.58362   0.04170  -0.09746
C     2.63329   1.54819  -0.09799
C     1.28027  -0.61799  -0.05156
C     0.07750   0.00817  -0.00610
C    -1.18757  -0.69637   0.03926
C    -2.42683  -0.14590   0.09117
C    -3.65274  -1.01356   0.13412
C    -2.69817   1.33158   0.11228
H     3.67408  -1.79205  -0.13730
H     4.70148  -0.23085  -0.17240
H     3.66967   1.91242  -0.13397
H     2.15157   1.96204   0.80349
H     2.08988   1.96324  -0.96312
H     1.29827  -1.71453  -0.05450
H     0.05055   1.10128  -0.00214
H    -1.12066  -1.79107   0.03063
H    -3.40493  -2.08501   0.11553
H    -4.31806  -0.79362  -0.72016
H    -4.24621  -0.80758   1.04311
H    -3.26670   1.60229   1.01958
H    -1.79024   1.94757   0.08152
H    -3.33579   1.61537  -0.74361
