21
Generated by autodE on: 2022-06-19. E = -607.966557 Ha
C     4.00180  -0.53833   0.20589
O     2.78940   0.06518  -0.26343
C     1.64101  -0.40876   0.25060
O     1.59755  -1.31005   1.06993
C     0.47102   0.28985  -0.29163
N     0.73827   1.27117  -1.12968
N     0.94879   2.11794  -1.85008
C    -0.94450   0.02464   0.03399
C    -1.93322   0.98552  -0.25836
C    -3.27470   0.73829   0.03135
C    -3.66052  -0.46842   0.62377
C    -2.68592  -1.42586   0.91795
C    -1.34088  -1.19033   0.62576
H     4.01449  -1.61300  -0.02704
H     4.10951  -0.39824   1.29136
H     4.81510  -0.02775  -0.32272
H    -1.65546   1.94009  -0.71043
H    -4.02247   1.49948  -0.20330
H    -4.71113  -0.65994   0.85309
H    -2.97203  -2.37531   1.37704
H    -0.59487  -1.94781   0.85523
