44
Generated by autodE on: 2022-06-19. E = -959.464591 Ha. Imaginary frequency = -410.1 cm-1
C     3.71584   1.29277   2.00128
C     3.11784   1.12339   0.80097
C     3.30505   2.11448  -0.31808
C     2.24150  -0.02114   0.58117
C     1.57841  -0.29150  -0.57586
C     0.67486  -1.39531  -0.73462
C     0.13008  -1.83014  -1.97206
C    -0.27130  -3.28806  -2.06135
C     0.64035  -1.23313  -3.26616
N    -1.67499  -1.07301  -2.07625
N    -1.94530  -0.47081  -1.10760
C    -1.33690  -0.19654   0.08989
C    -1.50401  -1.23142   1.11559
O    -0.99729  -1.20380   2.22765
O    -2.23933  -2.26962   0.67873
C    -2.32340  -3.40572   1.54628
C    -0.93683   1.18521   0.34259
C    -1.07078   2.15235  -0.67903
C    -0.59644   3.44897  -0.50272
C     0.03074   3.81836   0.69480
C     0.16931   2.87185   1.71104
C    -0.30532   1.56882   1.54365
H     4.36429   2.15033   2.20046
H     3.56422   0.57583   2.81396
H     3.72532   1.62931  -1.21460
H     3.97786   2.93027  -0.01863
H     2.33938   2.55372  -0.61675
H     2.10628  -0.69974   1.43069
H     1.69361   0.38971  -1.42175
H     0.61861  -2.09324   0.10450
H     0.60936  -3.90550  -2.31004
H    -0.68539  -3.65031  -1.10896
H    -1.01950  -3.44911  -2.85310
H     0.70374  -0.13656  -3.22516
H     1.64685  -1.62313  -3.49522
H    -0.02226  -1.50438  -4.10173
H    -2.94227  -4.14102   1.01906
H    -2.79376  -3.13200   2.50183
H    -1.32308  -3.82118   1.73718
H    -1.55611   1.88512  -1.61963
H    -0.71602   4.17863  -1.30704
H     0.40810   4.83453   0.82874
H     0.66550   3.14053   2.64639
H    -0.17869   0.83868   2.33781
