26
Generated by autodE on: 2022-06-05. E = -776.974370 Ha
C    -2.74879  -3.49142  -0.45769
N    -2.37193  -2.10273  -0.30316
C    -1.11018  -1.74829  -0.01540
O    -0.18385  -2.55784   0.13023
C    -0.85821  -0.28051   0.13123
N     0.35719   0.04886   0.43532
C     1.45565   0.33696   0.80642
C     2.69530   0.85910   0.23897
O     2.81647   2.03606  -0.03225
O     3.62601  -0.07796   0.13758
C     4.90557   0.33990  -0.38069
C    -1.87377   0.79524  -0.04427
O    -3.07140   0.52615  -0.24499
N    -1.43410   2.06527   0.02596
C    -2.34266   3.18457  -0.13284
H    -3.81561  -3.54409  -0.70701
H    -2.57386  -4.06342   0.46834
H    -2.17325  -3.97562  -1.26294
H    -3.05503  -1.34537  -0.37387
H     5.33884   1.11707   0.26428
H     4.79341   0.72343  -1.40441
H     5.53356  -0.55746  -0.37544
H    -0.44266   2.25674   0.12271
H    -2.77346   3.21514  -1.14688
H    -1.78921   4.11438   0.04429
H    -3.17308   3.12185   0.58663
