20
Generated by autodE on: 2022-06-05. E = -3183.644362 Ha
F     2.25474  -0.01516  -0.46984
C     1.65396  -0.76432   0.46544
F     1.72798  -2.05281   0.05038
F     2.41372  -0.68884   1.58123
C     0.24995  -0.37037   0.74281
C    -0.59064   0.44105   0.07455
Br   -0.30412   1.44648  -1.49268
C    -1.97422   0.29919   0.68175
C    -2.46784  -1.12292   0.25752
C    -1.51452  -2.07037   1.03916
C    -0.58901  -1.07348   1.80728
C    -1.58952   0.04736   2.15460
H    -2.66870   1.11747   0.46067
H    -3.51420  -1.25456   0.56842
H    -2.41961  -1.26074  -0.83185
H    -2.06707  -2.69422   1.75678
H    -0.93404  -2.73554   0.38585
H    -0.01232  -1.51501   2.62891
H    -1.11464   0.91771   2.62956
H    -2.43588  -0.30198   2.76443
