46
Generated by autodE on: 2022-06-05. E = -3960.598796 Ha. Imaginary frequency = -329.9 cm-1
C     3.68866  -0.15141   2.87622
N     3.21695  -0.32222   1.51993
C     2.35881   0.54874   0.96422
O     1.96849   1.58203   1.51943
C     1.85350   0.17746  -0.39384
C     2.53047  -0.80393  -1.28253
O     3.18545  -1.75069  -0.81283
N     2.40516  -0.60350  -2.60925
C     2.86787  -1.58633  -3.56877
N     0.99167   1.02945  -0.91714
C    -0.16591   1.35461  -1.03282
C    -0.82189   2.54606  -1.62649
O    -0.84196   3.62012  -1.07161
O    -1.40430   2.23570  -2.77261
C    -2.13027   3.29166  -3.43584
C    -1.37113  -0.11307  -0.02462
C    -2.08198   0.88571   0.84562
F    -1.24853   1.62426   1.59760
F    -2.94545   0.28335   1.69254
F    -2.82577   1.74873   0.11531
C    -2.18918  -0.81204  -1.14086
C    -1.26075  -1.21985  -2.31421
C    -0.40345  -2.36265  -1.70430
C    -0.90353  -2.42580  -0.24355
C    -2.42395  -2.18631  -0.46387
C    -0.57139  -1.13096   0.50278
Br   -0.00300  -1.27092   2.31020
H     4.23110   0.80021   2.99452
H     2.85325  -0.15175   3.59562
H     4.36735  -0.97692   3.12346
H     3.43502  -1.15974   0.97759
H     1.79416   0.13702  -2.93864
H     2.23241  -2.48891  -3.56381
H     2.84357  -1.14252  -4.57153
H     3.89821  -1.89064  -3.33781
H    -2.94288   3.64676  -2.78693
H    -2.53364   2.84355  -4.34996
H    -1.45300   4.12194  -3.67826
H    -3.07212  -0.23846  -1.44587
H    -1.87622  -1.58234  -3.14979
H    -0.65779  -0.38576  -2.69323
H     0.67298  -2.19278  -1.76366
H    -0.61217  -3.32436  -2.19536
H    -0.60394  -3.33014   0.29762
H    -2.99102  -2.11196   0.47448
H    -2.89257  -2.93202  -1.12568
