34
Generated by autodE on: 2022-06-17. E = -955.849255 Ha
C     4.23414   1.74270   0.04886
O     3.47850   0.52088  -0.00153
C     2.17261   0.62731  -0.23475
O     1.60059   1.68320  -0.41382
C     1.46793  -0.73631  -0.20506
C     2.17239  -1.76023  -1.08012
C     1.25545  -1.17173   1.25486
C     0.03841  -0.34798   1.67283
C    -0.74582  -0.19321   0.34345
C    -1.95963  -1.12691   0.34135
O    -3.06904  -0.76642   0.67691
O    -1.64141  -2.36358  -0.01185
C    -2.69801  -3.33963   0.02282
C    -1.26818   1.23802   0.13532
O    -1.40268   2.05399   1.01976
O    -1.57328   1.45402  -1.13912
C    -2.04718   2.76771  -1.47549
O     0.14047  -0.54914  -0.70554
H     5.27063   1.44833   0.24835
H     4.16611   2.27371  -0.91117
H     3.85855   2.38965   0.85448
H     3.17495  -1.97392  -0.68665
H     1.58175  -2.68746  -1.08583
H     2.26882  -1.39197  -2.11229
H     2.13651  -0.98747   1.88306
H     1.03075  -2.24781   1.26444
H     0.32469   0.64680   2.03656
H    -0.56395  -0.83022   2.45333
H    -3.09061  -3.43763   1.04485
H    -2.24628  -4.28214  -0.30560
H    -3.50912  -3.04498  -0.65769
H    -1.27267   3.51569  -1.25263
H    -2.96097   3.00288  -0.91151
H    -2.25715   2.74682  -2.55080
