28
Generated by autodE on: 2022-06-17. E = -877.108573 Ha
C     2.77728   0.75381   1.97483
O     2.01416   0.02642   0.99551
C     2.25971   0.30138  -0.27576
O     3.15893   0.99477  -0.69515
C     1.38980  -0.51465  -1.19418
C     2.00857  -1.12818  -2.38310
O     0.16406  -0.77420  -0.97166
C    -0.74212  -0.24708  -0.08167
C    -0.58872   1.13994   0.27292
O     0.31779   1.85538  -0.15950
O    -1.54402   1.61238   1.08639
C    -1.47628   3.00815   1.40307
C    -1.93022  -1.06021   0.07321
O    -2.91912  -0.76018   0.72960
O    -1.82891  -2.24423  -0.57728
C    -2.95730  -3.11639  -0.47631
H     2.41985   0.40620   2.95001
H     2.59423   1.83129   1.85938
H     3.84902   0.54086   1.85829
H     2.33950  -0.32327  -3.06343
H     1.29446  -1.78262  -2.89701
H     2.91580  -1.68521  -2.09465
H    -0.53049   3.24619   1.91190
H    -2.32316   3.20359   2.07137
H    -1.56435   3.62100   0.49417
H    -3.85701  -2.64873  -0.90371
H    -3.15507  -3.38298   0.57273
H    -2.69631  -4.01549  -1.04773
