34
Generated by autodE on: 2022-06-17. E = -955.735430 Ha. Imaginary frequency = -197.4 cm-1
C     3.91529   1.97475  -0.10830
O     3.22699   0.78156  -0.51086
C     1.91246   0.74339  -0.27106
O     1.29169   1.66741   0.22130
C     1.36713  -0.59012  -0.62987
C     2.21573  -1.63316  -1.26395
C     1.46434  -1.04893   1.87201
C     0.23431  -0.61902   2.24963
C    -0.95167  -0.29122  -0.01201
C    -2.04427  -1.21829   0.27435
O    -3.12638  -0.88049   0.73131
O    -1.71744  -2.49856   0.02716
C    -2.72544  -3.47457   0.31422
C    -1.25580   1.15260  -0.09790
O    -1.84939   1.78634   0.75343
O    -0.90435   1.65291  -1.29024
C    -1.06447   3.06681  -1.46193
O     0.09170  -0.85018  -0.63347
H     4.96678   1.81929  -0.37446
H     3.51084   2.84812  -0.63967
H     3.81305   2.12551   0.97624
H     3.14752  -1.76832  -0.69816
H     1.66088  -2.57939  -1.30442
H     2.49550  -1.33596  -2.28996
H     2.33938  -0.39632   1.91322
H     1.65487  -2.10766   1.67725
H     0.05036   0.41782   2.53985
H    -0.57604  -1.32782   2.43051
H    -2.98832  -3.45780   1.38216
H    -2.28940  -4.44498   0.04922
H    -3.62956  -3.29055  -0.28457
H    -0.50218   3.61154  -0.69022
H    -2.12682   3.34540  -1.40784
H    -0.66390   3.29815  -2.45580
