23
Generated by autodE on: 2022-06-21. E = -351.521382 Ha
C     2.81107  -0.46748  -2.48563
C     2.19900  -0.03645  -1.36073
C     2.93639   0.78345  -0.33303
C     0.79480  -0.36456  -1.12223
C     0.06903   0.00457  -0.03691
C    -1.32323  -0.34942   0.15021
C    -2.11442  -0.02417   1.20374
C    -1.66244   0.78218   2.38814
C    -3.54947  -0.46697   1.25276
H     3.86059  -0.23700  -2.68878
H     2.27322  -1.06268  -3.23006
H     3.97890   0.95658  -0.63509
H     2.45169   1.76259  -0.18359
H     2.93902   0.28119   0.64866
H     0.30402  -0.96213  -1.89994
H     0.55051   0.60044   0.74311
H    -1.77255  -0.94434  -0.65420
H    -1.80994   0.20775   3.31973
H    -2.28107   1.69150   2.48930
H    -0.60973   1.08893   2.33889
H    -4.22546   0.40377   1.32825
H    -3.73998  -1.07916   2.15262
H    -3.83445  -1.05269   0.36647
