24
Generated by autodE on: 2022-06-21. E = -721.566339 Ha
C    -4.38784  -1.65925  -0.48308
O    -2.96760  -1.50657  -0.37629
C    -2.51244  -0.25573  -0.18103
O    -3.24820   0.71280  -0.09373
C    -1.05095  -0.30333  -0.10318
N    -0.26312   0.73950   0.08916
C    -0.86737   2.08771   0.24804
C     1.11712   0.65483   0.15391
C     1.87755   1.82915   0.35109
N     2.54346   2.77538   0.51249
C     1.84363  -0.60421   0.02549
O     1.35844  -1.71452  -0.15015
O     3.17097  -0.40678   0.12658
C     4.00237  -1.56828   0.02048
H    -4.88335  -1.32107   0.43895
H    -4.56576  -2.72966  -0.63800
H    -4.77524  -1.08225  -1.33576
H    -0.57155  -1.27043  -0.21294
H    -0.07880   2.82379   0.40979
H    -1.54792   2.07036   1.10485
H    -1.43009   2.33169  -0.65840
H     3.77080  -2.28561   0.82142
H     5.03299  -1.20899   0.12251
H     3.86627  -2.05546  -0.95613
