24
Generated by autodE on: 2022-07-27. E = -721.562496 Ha
C     3.72522   0.13963  -3.24000
O     2.39947   0.06425  -2.70274
C     2.29228   0.11139  -1.36226
O     3.25534   0.21226  -0.62101
C     0.87588   0.02321  -1.00779
N     0.38029   0.03044   0.21848
C     1.30967   0.12362   1.37265
C    -0.98320  -0.02901   0.44373
C    -1.82079  -0.04543  -0.69610
N    -2.48333  -0.05533  -1.65732
C    -1.64003  -0.10106   1.74990
O    -1.13566  -0.13308   2.86283
O    -2.97698  -0.13556   1.57600
C    -3.77760  -0.21640   2.76046
H     4.20369   1.08875  -2.95655
H     4.33787  -0.69847  -2.87633
H     3.61314   0.08237  -4.32883
H     0.17518  -0.05030  -1.83670
H     0.73223   0.10503   2.29401
H     1.87605   1.05592   1.28070
H     2.00209  -0.72298   1.32868
H    -4.81830  -0.23891   2.41672
H    -3.54556  -1.13161   3.32459
H    -3.60995   0.66032   3.40300
