47
Generated by autodE on: 2022-06-01. E = -1182.259937 Ha
C     1.69834   3.47615  -2.43292
N     1.46501   2.48022  -1.40492
C     0.71892   1.39485  -1.63523
O     0.17843   1.17393  -2.72270
C     0.61981   0.38258  -0.46625
C     1.55960  -0.81169  -0.74895
C     2.12577  -1.04719  -2.01062
C     2.95256  -2.15301  -2.22437
C     3.23101  -3.04072  -1.18293
C     2.68040  -2.80902   0.08023
C     1.85783  -1.70246   0.29614
N     1.12353   1.02545   0.75126
C     0.28646   0.91569   1.70351
C     0.55466   1.46158   3.00749
N     0.73813   1.89057   4.07030
C    -1.03365   0.21852   1.40675
C    -1.20050  -0.88056   2.36030
N    -1.30989  -1.61127   3.25605
C    -2.22943   1.23095   1.48892
C    -3.52502   0.46672   1.16386
C    -3.40243   0.21611  -0.36562
C    -2.02827   0.82979  -0.72744
C    -2.00218   2.04812   0.20986
C    -0.88907  -0.07739  -0.14623
C    -1.11188  -1.52631  -0.58598
C    -1.13195  -1.79192  -2.06796
O    -1.32914  -2.41607   0.21494
H     0.74574   3.85235  -2.83506
H     2.25669   4.31181  -1.99471
H     2.28040   3.05737  -3.26956
H     1.89545   2.57686  -0.49041
H     1.91192  -0.38146  -2.84490
H     3.37873  -2.31834  -3.21645
H     3.87539  -3.90615  -1.35325
H     2.89184  -3.49026   0.90734
H     1.44770  -1.54872   1.29464
H    -2.23795   1.77347   2.44277
H    -3.62030  -0.46082   1.74568
H    -4.39272   1.09674   1.40384
H    -4.18255   0.75771  -0.91872
H    -3.49917  -0.84461  -0.63105
H    -1.89991   1.03075  -1.79221
H    -2.83279   2.74040   0.01234
H    -1.06521   2.61965   0.19685
H    -2.18996  -1.88706  -2.36574
H    -0.67919  -0.98543  -2.65283
H    -0.63873  -2.75247  -2.26991
