24
Generated by autodE on: 2022-06-01. E = -664.304624 Ha
C     3.06935  -2.50864   0.09691
N     1.81643  -1.77853   0.14073
C     1.71072  -0.54507  -0.38173
O     2.65330   0.04903  -0.91157
C     0.36212   0.12433  -0.25185
N     0.39843   1.40121  -0.34109
C     0.46719   2.59715  -0.57344
C     0.63597   3.68540   0.28635
N     0.76920   4.69082   0.86873
C    -0.93100  -0.55252  -0.01905
C    -1.93089   0.09126   0.73500
C    -3.16766  -0.52058   0.93309
C    -3.42583  -1.78131   0.38350
C    -2.44083  -2.42350  -0.37254
C    -1.20104  -1.81605  -0.57811
H     3.43493  -2.59622  -0.93749
H     3.84812  -2.00388   0.69125
H     2.90632  -3.51352   0.50425
H     1.02052  -2.19601   0.61134
H    -1.72903   1.06985   1.17586
H    -3.93248  -0.01334   1.52539
H    -4.39399  -2.26116   0.54322
H    -2.63962  -3.40190  -0.81550
H    -0.45131  -2.31578  -1.19238
