47
Generated by autodE on: 2022-06-01. E = -1182.186429 Ha. Imaginary frequency = -217.5 cm-1
C     0.73664   3.69957  -2.14391
N     1.18011   2.64113  -1.25593
C     1.03031   1.34768  -1.58971
O     0.65401   0.98859  -2.70874
C     1.33895   0.34453  -0.50031
C     1.96962  -0.95024  -0.75832
C     2.31735  -1.36356  -2.06171
C     2.88805  -2.61775  -2.27043
C     3.12578  -3.47862  -1.19380
C     2.78887  -3.07560   0.10279
C     2.21635  -1.82600   0.32157
N     1.24180   0.78011   0.73500
C     0.55212   0.96972   1.72513
C     0.75518   1.60484   2.95350
N     0.76731   2.09459   4.01286
C    -1.47197   0.15233   1.30354
C    -1.39004  -0.79889   2.36890
N    -1.35729  -1.49157   3.30432
C    -2.37489   1.38620   1.43473
C    -3.81007   0.88500   1.08670
C    -3.72353   0.59563  -0.44094
C    -2.23003   0.91818  -0.77168
C    -2.00406   2.13814   0.14539
C    -1.43340  -0.16660  -0.06044
C    -1.10027  -1.48553  -0.58640
C    -1.30096  -1.71580  -2.06070
O    -0.66711  -2.38152   0.14797
H     1.23773   3.62583  -3.12050
H    -0.35161   3.64743  -2.31035
H     0.98285   4.66609  -1.68875
H     1.47025   2.88649  -0.31490
H     2.13407  -0.70258  -2.90554
H     3.15255  -2.92360  -3.28504
H     3.57434  -4.45988  -1.36436
H     2.97156  -3.74050   0.94966
H     1.95429  -1.52621   1.33691
H    -2.28447   1.91965   2.38842
H    -4.08694   0.00108   1.67903
H    -4.53782   1.67905   1.30740
H    -4.38428   1.26382  -1.01316
H    -3.98387  -0.44063  -0.69758
H    -2.01000   1.04518  -1.83690
H    -2.69632   2.96408  -0.07175
H    -0.97727   2.52182   0.14004
H    -2.36355  -1.58652  -2.32416
H    -0.73022  -0.97069  -2.63469
H    -0.97420  -2.72914  -2.32709
