20
Generated by autodE on: 2022-06-22. E = -457.715336 Ha
C    -3.14820   0.42342   0.09242
N    -1.82002  -0.10672  -0.16802
C    -1.68517  -1.39312  -0.70525
C    -0.49149  -1.97487  -0.90137
C     0.81751  -1.30408  -0.56524
C     0.57115   0.06594   0.04567
C     1.68683   0.91635   0.49062
N     2.93181   0.40472   0.31767
O     1.53216   2.04428   1.00212
C    -0.69008   0.55901   0.20129
H    -3.76797   0.37868  -0.81651
H    -3.06549   1.47143   0.40623
H    -3.66013  -0.14315   0.88863
H    -2.62599  -1.88707  -0.95479
H    -0.46694  -2.97987  -1.32881
H     1.40578  -1.94426   0.12343
H     1.44876  -1.22524  -1.47442
H     3.09848  -0.50381  -0.09564
H     3.72899   0.95784   0.61241
H    -0.83907   1.54575   0.64275
