49
Generated by autodE on: 2022-06-22. E = -1092.124758 Ha. Imaginary frequency = -331.7 cm-1
C     0.94246  -3.32673  -1.10419
N    -0.02842  -2.25433  -0.96998
C    -0.71337  -2.06597   0.18481
C    -1.72016  -1.14135   0.31751
C    -2.23412  -0.89363   1.66027
N    -3.30916  -0.05754   1.77425
O    -1.75028  -1.42429   2.68731
C    -2.22099  -0.43636  -0.92781
C    -1.06955  -0.28847  -1.90922
C    -0.05928   1.38707  -0.98105
C    -0.92360   2.39592  -0.41179
C    -1.02260   2.50117   0.99085
C    -1.96532   3.35797   1.55840
C    -2.80399   4.12650   0.74353
C    -2.70256   4.02815  -0.65001
C    -1.78253   3.15570  -1.22976
N     1.14017   1.17154  -1.01459
C     2.09431   0.28780  -1.29179
C     2.87794   0.48218  -2.55990
C     2.56906  -0.56853  -0.21489
C     3.74876  -1.33870  -0.36126
C     4.16412  -2.20963   0.64354
C     3.42441  -2.34163   1.82724
C     2.26798  -1.57213   1.99548
C     1.84959  -0.69385   0.99742
C    -0.13172  -1.30091  -1.99201
H     0.54435  -4.15091  -1.72060
H     1.19976  -3.72131  -0.11293
H     1.85537  -2.94724  -1.58095
H    -0.40926  -2.68715   1.02722
H    -3.57619   0.54480   1.00464
H    -3.53168   0.27305   2.70760
H    -2.63820   0.55366  -0.69424
H    -3.05093  -0.99833  -1.40486
H    -1.25349   0.29059  -2.81826
H    -0.37275   1.89205   1.62196
H    -2.04436   3.42676   2.64586
H    -3.53850   4.79874   1.19262
H    -3.35640   4.62611  -1.28913
H    -1.72313   3.05189  -2.31508
H     2.29758   1.07597  -3.27964
H     3.10966  -0.48838  -3.02333
H     3.84032   0.99744  -2.38480
H     4.33737  -1.26253  -1.27635
H     5.07572  -2.79584   0.50183
H     3.75098  -3.03044   2.60964
H     1.67265  -1.65888   2.90811
H     0.94982  -0.10072   1.15617
H     0.49920  -1.47215  -2.86146
