25
Generated by autodE on: 2022-10-06. E = -909.295572 Ha
C     2.30650  -1.13062   0.71425
C     2.12655   0.27217   0.22174
O     2.98951   1.12850   0.28341
C     0.84664   0.54832  -0.62669
C     1.15103   1.65287  -1.56673
N     1.36629   2.49896  -2.33088
O     0.54376  -0.61617  -1.36417
N    -0.87693  -0.47399  -1.70807
C    -1.27518  -1.75904  -2.24967
C    -1.49841  -0.08488  -0.42236
C    -1.86385  -1.28892   0.48581
O    -3.08887  -1.53928   0.60012
O    -0.92069  -1.95431   0.99323
C    -0.45719   0.88721   0.17189
C    -0.36040   0.86249   1.71041
O    -1.45374   0.95085   2.31664
O     0.78517   0.81320   2.22666
H     3.01914  -1.13349   1.54969
H     1.35158  -1.58958   0.99314
H     2.73681  -1.71744  -0.11655
H    -2.36209  -1.73389  -2.40743
H    -1.03033  -2.60033  -1.57769
H    -0.78204  -1.91690  -3.21928
H    -2.43076   0.44017  -0.66505
H    -0.75620   1.91463  -0.07913
