15
Generated by autodE on: 2022-10-13. E = -454.161280 Ha
C    -2.14724  -1.90607  -1.40065
N    -1.51455  -0.63012  -1.20524
O    -0.59213  -0.74823  -0.31800
C     0.16628   0.26750   0.07534
C    -0.01893   1.55042  -0.48354
N    -0.15463   2.61815  -0.93191
C     1.17925  -0.01164   1.08802
C     1.28193  -1.42030   1.60569
O     1.90222   0.90410   1.47639
H    -3.22516  -1.79677  -1.18815
H    -1.71356  -2.69652  -0.77266
H    -2.06499  -2.17565  -2.46789
H     2.09197  -1.46980   2.34411
H     0.33207  -1.72731   2.07125
H     1.48294  -2.12102   0.78030
