15
Generated by autodE on: 2022-10-06. E = -454.154248 Ha
C     2.29270   0.29731   1.44435
N     1.06862  -0.18863   2.00870
O     0.07722  -0.26827   1.18690
C    -0.09143  -0.00931  -0.10349
C     0.88218   0.44844  -1.02585
N     1.57878   0.81630  -1.88550
C    -1.46538  -0.24163  -0.58759
C    -2.48499  -0.71954   0.40761
O    -1.72270  -0.03445  -1.76835
H     2.17225   1.31590   1.03270
H     2.66324  -0.36299   0.63945
H     3.02914   0.32122   2.25557
H    -2.16915  -1.67506   0.85463
H    -2.58737   0.00619   1.22972
H    -3.44769  -0.84458  -0.10344
