10
Generated by autodE on: 2022-10-06. E = -455.046528 Ha
O     1.10676   1.04164   0.44260
C     1.47728   0.27356  -0.48975
O     2.58635   0.33699  -1.09330
C     0.53936  -0.82187  -0.93871
C    -0.71423  -1.01253  -0.49472
C    -1.46242  -0.19811   0.54412
O    -1.44150  -0.64485   1.72063
O    -2.10984   0.79752   0.12961
H     0.94793  -1.49519  -1.70118
H    -1.29154  -1.85204  -0.90653
