25
Generated by autodE on: 2022-10-06. E = -909.210658 Ha. Imaginary frequency = -218.0 cm-1
C     2.54263  -1.28708   0.55826
C     2.37933   0.13050   0.08308
O     3.15082   1.03818   0.38334
C     1.26755   0.39872  -0.83428
C     1.16064   1.64625  -1.49924
N     1.10812   2.68400  -2.02858
O     0.63189  -0.67125  -1.31406
N    -0.47673  -0.46056  -1.98876
C    -1.00160  -1.74400  -2.39147
C    -1.68466   0.35777  -0.17264
C    -2.21926  -0.99901   0.22199
O    -3.41210  -1.24796  -0.09848
O    -1.43121  -1.78664   0.81764
C    -0.78050   1.03956   0.60826
C    -0.38911   0.64284   2.03109
O    -1.35641   0.65870   2.83803
O     0.81257   0.43480   2.32286
H     3.20597  -1.29671   1.43250
H     1.57375  -1.73790   0.80619
H     3.00215  -1.88445  -0.24791
H    -2.08751  -1.63393  -2.50781
H    -0.78252  -2.53456  -1.65849
H    -0.57770  -2.02545  -3.37295
H    -2.24111   0.89821  -0.93990
H    -0.59240   2.09339   0.37460
