30
Generated by autodE on: 2022-06-16. E = -555.739767 Ha
C    -1.95205   1.55712  -1.62914
C    -0.69612   1.19794  -1.33309
C     0.45660   2.16248  -1.35254
C    -0.32974  -0.20869  -0.92250
C    -0.13038  -0.39274   0.60478
C     1.28968  -0.34792   1.06726
C     1.85375   0.55642   1.88908
C     3.31624   0.47141   2.23454
C     1.13155   1.71966   2.51150
N    -0.75585  -1.72365   0.86828
N    -1.38555  -2.10735  -0.14123
N    -1.35688  -1.22389  -1.16720
C    -1.55385  -1.75804  -2.49851
H    -2.19013   2.58854  -1.90494
H    -2.77477   0.83900  -1.60153
H     0.14056   3.16334  -1.67932
H     0.91183   2.24987  -0.35197
H     1.25429   1.80575  -2.02616
H     0.59650  -0.50070  -1.45804
H    -0.74458   0.34451   1.14285
H     1.92308  -1.14322   0.65655
H     3.80503  -0.39221   1.76033
H     3.84395   1.38857   1.91865
H     3.45491   0.39639   3.32737
H     1.59894   2.66783   2.19363
H     0.06452   1.76524   2.25857
H     1.22492   1.68313   3.61072
H    -0.62516  -2.20266  -2.90306
H    -2.33444  -2.52957  -2.46315
H    -1.88021  -0.95485  -3.17278
