30
Generated by autodE on: 2022-06-16. E = -555.676605 Ha. Imaginary frequency = -436.9 cm-1
C    -2.14879   1.56793  -1.09854
C    -0.97273   1.26040  -1.67924
C    -0.67115   1.63280  -3.10718
C     0.09296   0.51091  -0.98082
C     0.23441   0.50152   0.42192
C     1.50160   0.09919   1.02970
C     1.86403   0.23061   2.32641
C     3.21002  -0.23796   2.80573
C     0.98486   0.82788   3.38950
N    -0.97550  -1.17289   0.92062
N    -1.06050  -1.68789  -0.13697
N    -0.57858  -1.48251  -1.28835
C    -1.38253  -1.81533  -2.45413
H    -2.91842   2.11751  -1.64757
H    -2.38256   1.27519  -0.07173
H    -1.50810   2.17028  -3.57538
H     0.22947   2.26816  -3.16326
H    -0.45527   0.73236  -3.70636
H     0.98687   0.30432  -1.57368
H    -0.42306   1.15308   0.99774
H     2.21718  -0.37533   0.34745
H     3.81219  -0.67097   1.99312
H     3.78051   0.59458   3.25571
H     3.10183  -0.99802   3.60065
H     1.48816   1.68358   3.87373
H     0.01205   1.17048   3.01356
H     0.79882   0.08989   4.19012
H    -1.64786  -2.88373  -2.45746
H    -2.30738  -1.21554  -2.50390
H    -0.77564  -1.61122  -3.34454
