50
Generated by autodE on: 2022-06-10. E = -4565.023459 Ha
C     0.21123   2.24375  -2.44464
N     0.48073   2.13261  -1.00766
N     1.13673   0.87719  -0.75118
C     2.43340   0.86938  -0.47806
N     3.58820   0.92598  -0.31137
C     0.13860  -0.11012  -0.48440
C    -1.01403   0.57624  -0.23996
N    -0.72797   1.98710  -0.27250
C    -0.72125   2.72323   0.95877
C    -0.52948   4.11058   0.89059
C    -0.51482   4.86987   2.05991
C    -0.70991   4.25796   3.30448
C    -0.90909   2.87704   3.36694
C    -0.90568   2.10586   2.20044
C    -2.44838   0.10883  -0.11267
Cl   -3.55430   1.52873   0.17630
Cl   -2.67285  -0.94208   1.38588
C    -2.99558  -0.60619  -1.36093
C    -2.07391  -1.53506  -2.14657
C    -1.52900  -2.79232  -1.47261
C    -0.48663  -2.62668  -0.36057
C     0.58697  -1.54555  -0.49062
Br    1.49377  -1.82285  -2.32751
C     1.62766  -1.75909   0.61671
C     1.49612  -1.04344   1.81706
C     2.37716  -1.26458   2.87864
C     3.39675  -2.21088   2.76062
C     3.52237  -2.94063   1.57398
C     2.64384  -2.71901   0.51251
H     1.17534   2.26694  -2.96990
H    -0.40079   1.40962  -2.82879
H    -0.31377   3.19301  -2.61215
H    -0.39120   4.58445  -0.08257
H    -0.35975   5.94961   1.99813
H    -0.70639   4.85619   4.21828
H    -1.05871   2.38584   4.33129
H    -1.05828   1.02909   2.26567
H    -3.28493   0.20365  -2.04611
H    -3.92174  -1.11895  -1.06177
H    -1.24470  -0.94971  -2.57140
H    -2.66825  -1.85962  -3.01563
H    -2.36229  -3.38256  -1.05626
H    -1.08145  -3.41026  -2.26579
H    -0.96652  -2.43800   0.60700
H     0.04719  -3.57970  -0.23968
H     0.70555  -0.30172   1.92861
H     2.26198  -0.68847   3.79952
H     4.09066  -2.38024   3.58711
H     4.31349  -3.68665   1.46930
H     2.76119  -3.28777  -0.41011
