30
Generated by autodE on: 2022-06-10. E = -4036.145902 Ha
Cl   -2.95325  -2.74147  -1.42975
C    -1.22522  -2.22780  -1.20342
Cl   -0.23455  -3.72485  -0.84698
C    -1.07866  -1.28329  -0.11490
C    -0.60096  -0.25619   0.32101
C     0.07265   1.02518   0.25449
Br   -1.03090   2.34022   1.37553
C     1.48540   1.02408   0.79308
C     1.99643  -0.08966   1.47264
C     3.31497  -0.09214   1.93787
C     4.13532   1.01803   1.72700
C     3.63024   2.13382   1.04821
C     2.31553   2.13755   0.58377
C    -0.05938   1.46319  -1.22720
C     0.76975   0.64843  -2.24226
C     0.68835  -0.89225  -2.31659
C    -0.70465  -1.54331  -2.48524
H     1.36296  -0.96405   1.63310
H     3.69951  -0.96822   2.46502
H     5.16582   1.01679   2.08945
H     4.26523   3.00656   0.87976
H     1.92994   3.01714   0.06542
H     0.24720   2.51593  -1.31252
H    -1.12744   1.42251  -1.48422
H     0.49432   1.05649  -3.22936
H     1.83298   0.90059  -2.09962
H     1.19842  -1.33657  -1.44878
H     1.29849  -1.18356  -3.18518
H    -1.45711  -0.78743  -2.75832
H    -0.69999  -2.30190  -3.28097
