50
Generated by autodE on: 2022-06-10. E = -4564.941742 Ha. Imaginary frequency = -339.6 cm-1
C     0.22603   2.52029  -2.52425
N     0.44504   2.28376  -1.09475
N     1.22785   1.25546  -0.72427
C     2.38836   1.08923  -1.33861
N     3.46015   0.92862  -1.78050
C    -0.15242  -0.20580  -0.56747
C    -1.26862   0.36733  -0.51025
N    -0.54334   2.55495  -0.31884
C    -0.32970   2.56232   1.08112
C     0.93363   2.75258   1.67249
C     1.04131   2.85271   3.05905
C    -0.09016   2.74393   3.87347
C    -1.34773   2.57454   3.28384
C    -1.47137   2.50596   1.89810
C    -2.69069   0.06383  -0.44281
Cl   -3.76057   1.54893  -0.64829
Cl   -3.05323  -0.57165   1.25638
C    -3.15260  -0.96970  -1.48989
C    -2.13164  -2.00981  -1.95892
C    -1.50827  -3.01533  -0.97970
C    -0.46153  -2.56165   0.05468
C     0.56478  -1.47452  -0.33594
Br    1.42242  -2.03272  -2.08946
C     1.60803  -1.32057   0.77386
C     1.18039  -0.70516   1.96396
C     2.04995  -0.56689   3.04580
C     3.36316  -1.03984   2.95859
C     3.79403  -1.65216   1.78005
C     2.92245  -1.79217   0.69459
H     1.19566   2.56701  -3.03452
H    -0.37038   1.68302  -2.92303
H    -0.31281   3.46570  -2.63998
H     1.82854   2.83481   1.05903
H     2.02631   3.00381   3.50598
H     0.00638   2.80220   4.95977
H    -2.24253   2.50367   3.90618
H    -2.44881   2.38899   1.43385
H    -3.44682  -0.39282  -2.37819
H    -4.06701  -1.44107  -1.10083
H    -1.33431  -1.49484  -2.51344
H    -2.66630  -2.60592  -2.71651
H    -2.30888  -3.52651  -0.41903
H    -1.03758  -3.78962  -1.60484
H    -0.95864  -2.16884   0.95287
H     0.10936  -3.44409   0.38047
H     0.16314  -0.31858   2.04282
H     1.69836  -0.07623   3.95583
H     4.04681  -0.92717   3.80322
H     4.81808  -2.02340   1.69579
H     3.27657  -2.26397  -0.22117
