55
Generated by autodE on: 2022-10-23. E = -1336.493966 Ha
C     3.06563  -1.21890   3.16548
N     2.41428  -0.91947   1.90841
C     1.80253   0.24445   1.65336
O     1.80194   1.20999   2.42423
C     1.11674   0.32230   0.25891
C     2.11441   1.00523  -0.66682
C     2.82200   0.29838  -1.64854
C     3.74478   0.95467  -2.47054
C     3.97929   2.32248  -2.31604
C     3.28672   3.03202  -1.32878
C     2.36439   2.37864  -0.51029
N     0.75698  -1.03062  -0.19816
C    -0.58398  -1.35650   0.29672
C    -1.48005  -1.79286  -0.88639
C    -2.83053  -2.37727  -0.59952
O    -1.05850  -1.67775  -2.02352
C    -0.46604  -2.54883   1.28176
C     0.20184  -3.79203   0.75911
O    -0.86260  -2.46698   2.42822
C    -1.09141  -0.05020   1.02836
C    -0.23569   1.05685   0.39721
C    -0.78938   1.53427  -0.95290
C    -2.29241   1.64551  -0.93103
C    -3.03041   2.40970  -1.94526
N    -2.29041   2.98578  -2.92816
O    -4.27207   2.54450  -1.93555
C    -3.02244   1.01913   0.03818
N    -2.50760   0.22809   1.00972
C    -3.33419  -0.30091   2.08057
H     2.35652  -1.63734   3.90000
H     3.49828  -0.30191   3.58707
H     3.86834  -1.95030   3.00105
H     2.26357  -1.65272   1.21956
H     2.66821  -0.77341  -1.77784
H     4.28352   0.38770  -3.23343
H     4.69940   2.83415  -2.95885
H     3.46380   4.10192  -1.19577
H     1.83529   2.93959   0.26100
H     0.72112  -1.06352  -1.21856
H    -3.57673  -1.56802  -0.64468
H    -3.07891  -3.10914  -1.38013
H    -2.89502  -2.83763   0.39457
H     1.26908  -3.75614   1.03376
H     0.14046  -3.87886  -0.33420
H    -0.24060  -4.67330   1.24360
H    -0.80073  -0.16992   2.08032
H    -0.16418   1.90011   1.09404
H    -0.46089   0.85844  -1.76170
H    -0.33765   2.51113  -1.18117
H    -2.77314   3.49342  -3.66107
H    -1.28955   2.85894  -3.00612
H    -4.10682   1.14269   0.05675
H    -4.39019  -0.09995   1.85819
H    -3.19478  -1.38568   2.18859
H    -3.08198   0.17009   3.04658
