20
Generated by autodE on: 2022-10-23. E = -457.715313 Ha
C    -3.09311  -0.65366   0.31970
N    -1.82436   0.03201   0.13798
C    -1.81570   1.39641  -0.17796
C    -0.68334   2.07912  -0.40993
C     0.68664   1.44936  -0.35043
C     0.57591  -0.03222  -0.02860
C     1.77007  -0.88626   0.07197
N     2.96262  -0.27090  -0.12893
O     1.72321  -2.10742   0.32556
C    -0.63242  -0.62544   0.18590
H    -2.90423  -1.68759   0.63441
H    -3.67763  -0.67170  -0.61539
H    -3.69736  -0.15676   1.09497
H    -2.80114   1.86389  -0.22088
H    -0.75756   3.14279  -0.64758
H     1.21996   1.60791  -1.31010
H     1.31253   1.97290   0.40157
H     3.81041  -0.82414  -0.06939
H     3.04208   0.71618  -0.33711
H    -0.68218  -1.69093   0.41551
