35
Generated by autodE on: 2022-10-26. E = -878.731945 Ha
C     2.56252   0.12710   3.09715
N     2.02897   0.20095   1.75185
C     0.71499   0.24312   1.48016
O    -0.17593   0.21722   2.33462
C     0.35977   0.35676   0.01971
N    -0.72201  -0.23616  -0.43815
C    -1.60835  -1.17079   0.05324
C    -2.85472  -1.13549  -0.69826
C    -3.97638  -2.08927  -0.38846
O    -2.97656  -0.31516  -1.62990
C    -1.26227  -2.19397   1.02604
C     0.17900  -2.63674   1.17355
O    -2.13373  -2.79863   1.66416
C     1.10220   1.23771  -0.88661
C     1.15678   0.95219  -2.26769
C     1.82217   1.81042  -3.14143
C     2.44924   2.96223  -2.65534
C     2.40618   3.25279  -1.28722
C     1.74206   2.40100  -0.40699
H     3.28256  -0.70080   3.17470
H     3.07484   1.06345   3.37147
H     1.73852  -0.04423   3.79927
H     2.68333   0.23538   0.97549
H    -1.08771   0.11706  -1.34019
H    -4.75133  -1.97850  -1.15880
H    -4.40449  -1.86465   0.60007
H    -3.62530  -3.13041  -0.34857
H     0.55741  -2.36373   2.17043
H     0.85828  -2.23614   0.41086
H     0.18152  -3.73573   1.11383
H     0.70169   0.03750  -2.65312
H     1.86334   1.57068  -4.20611
H     2.97539   3.63032  -3.34078
H     2.88731   4.15476  -0.90301
H     1.69657   2.65319   0.65310
