35
Generated by autodE on: 2022-10-23. E = -878.734406 Ha
C     1.47033   3.69393  -0.01823
N     1.39801   2.25801   0.16841
C     0.46893   1.52255  -0.45812
O    -0.29546   1.96545  -1.31901
C     0.47360   0.04537  -0.14874
N    -0.65634  -0.60019   0.00023
C    -1.97980  -0.22391   0.21199
C    -2.85864  -1.34318  -0.09093
C    -4.35363  -1.27867   0.08534
O    -2.35178  -2.40564  -0.50844
C    -2.25597   1.00883   0.91482
C    -3.67277   1.46494   1.17955
O    -1.32183   1.71270   1.33861
C     1.72007  -0.72383  -0.18984
C     1.84194  -1.92588   0.53963
C     3.01447  -2.67616   0.47270
C     4.08485  -2.24098  -0.31574
C     3.97741  -1.04720  -1.03767
C     2.80949  -0.29007  -0.97496
H     1.58439   3.94237  -1.08402
H     0.55711   4.18745   0.35344
H     2.33569   4.08176   0.53251
H     1.95805   1.82101   0.89372
H    -0.62072  -1.62705  -0.11480
H    -4.77833  -2.22646  -0.26944
H    -4.79278  -0.44838  -0.48519
H    -4.62739  -1.13769   1.14117
H    -3.62269   2.47416   1.60847
H    -4.27321   1.48926   0.25971
H    -4.18175   0.80353   1.89606
H     1.02918  -2.25794   1.18872
H     3.09818  -3.59886   1.05084
H     5.00473  -2.82806  -0.36217
H     4.80812  -0.70554  -1.65881
H     2.73199   0.62826  -1.55777
