55
Generated by autodE on: 2022-10-23. E = -1336.432954 Ha. Imaginary frequency = -366.6 cm-1
C     3.61260  -0.96466   2.92513
N     2.94756  -0.63753   1.67826
C     1.62033  -0.44373   1.61246
O     0.89909  -0.48245   2.61118
C     1.08232  -0.20476   0.18986
C     1.98943   0.56449  -0.71715
C     2.26062   0.13759  -2.02881
C     3.06718   0.90219  -2.87592
C     3.62232   2.10175  -2.42665
C     3.37175   2.53017  -1.11763
C     2.56664   1.77025  -0.27274
N     0.41187  -1.24213  -0.39943
C    -0.65486  -1.95783   0.16923
C    -1.78936  -2.02083  -0.71942
C    -2.96829  -2.92740  -0.46629
O    -1.78597  -1.35107  -1.78036
C    -0.49330  -2.78258   1.34954
C     0.86865  -3.37382   1.65511
O    -1.44777  -3.09990   2.08271
C    -1.46275   0.51085   1.25227
C    -0.42024   1.20090   0.61077
C    -0.71642   1.89527  -0.71334
C    -2.19764   2.04144  -0.97126
C    -2.71395   2.88853  -2.07162
N    -1.78314   3.49142  -2.84659
O    -3.92872   3.04267  -2.28842
C    -3.09814   1.32022  -0.26542
N    -2.74277   0.52455   0.80762
C    -3.76461  -0.19288   1.56814
H     3.39960  -2.00113   3.23441
H     3.27589  -0.29103   3.72604
H     4.69522  -0.85026   2.79046
H     3.49265  -0.60822   0.82272
H     1.86434  -0.81048  -2.39438
H     3.26606   0.54969  -3.89036
H     4.25328   2.69870  -3.08900
H     3.80361   3.46508  -0.75395
H     2.37466   2.12477   0.74117
H     0.16251  -1.03561  -1.37245
H    -3.85477  -2.31122  -0.24981
H    -3.17978  -3.46706  -1.40278
H    -2.82363  -3.62999   0.35933
H     1.13512  -3.18281   2.70403
H     1.66833  -3.01864   0.99645
H     0.77567  -4.46569   1.53021
H    -1.30162   0.05970   2.22854
H     0.25090   1.69910   1.31258
H    -0.27360   1.32215  -1.55222
H    -0.21596   2.87530  -0.73633
H    -2.09621   4.06417  -3.62323
H    -0.78896   3.34432  -2.72492
H    -4.16396   1.36153  -0.48818
H    -4.64588  -0.35301   0.93629
H    -3.36411  -1.16352   1.88544
H    -4.06168   0.38349   2.45901
