41
Generated by autodE on: 2022-06-18. E = -957.327797 Ha
C     4.71562  -0.74811   2.15984
C     3.87360  -0.83580   1.11055
C     4.17337  -1.70759  -0.08001
C     2.61993  -0.07430   1.11979
C     1.70571  -0.07576   0.13453
C     0.41114   0.67695   0.20400
C     0.14860   1.60768  -1.03310
C     1.38824   1.92412  -1.87679
C    -0.53822   2.92018  -0.61095
C    -0.85277   0.74849  -1.78809
C    -1.22353   1.05343  -3.14659
N    -1.49082   1.33427  -4.24137
N    -1.38804  -0.23872  -1.17541
C    -0.83518  -0.28030   0.18436
C    -0.45216  -1.71432   0.62239
C    -0.27408  -2.75381  -0.43601
O    -0.31347  -1.93494   1.81089
C    -1.92339   0.16443   1.18003
O    -1.78056   1.01377   2.02929
O    -3.03918  -0.53389   0.99987
C    -4.13320  -0.25285   1.89076
H     4.48330  -0.11295   3.02010
H     5.65500  -1.30749   2.18652
H     4.21883  -1.11157  -1.00671
H     3.37902  -2.45822  -0.22849
H     5.13091  -2.23325   0.04105
H     2.42882   0.52901   2.01502
H     1.87780  -0.67304  -0.76456
H     0.38699   1.26087   1.13068
H     2.14467   2.42529  -1.25561
H     1.12008   2.60290  -2.70100
H     1.84048   1.02156  -2.30990
H    -0.85682   3.49262  -1.49587
H    -1.41850   2.73441   0.01993
H     0.17446   3.53534  -0.04087
H     0.18085  -3.65322  -0.00180
H     0.32993  -2.37347  -1.27235
H    -1.26733  -3.00070  -0.84660
H    -4.94934  -0.91511   1.58141
H    -3.84009  -0.46395   2.92889
H    -4.43731   0.79933   1.79894
