23
Generated by autodE on: 2022-06-18. E = -351.521382 Ha
C    -3.66809  -0.79738  -0.45525
C    -2.58211  -0.14770   0.01841
C    -2.71696   1.01529   0.96779
C    -1.24379  -0.56904  -0.39076
C    -0.07846  -0.00087   0.00934
C     1.22397  -0.45848  -0.42999
C     2.43113   0.05622  -0.08434
C     2.62321   1.22495   0.84003
C     3.70199  -0.53383  -0.62720
H    -4.68096  -0.50309  -0.16647
H    -3.56650  -1.64108  -1.14485
H    -2.26302   1.92728   0.54562
H    -3.77209   1.22658   1.19162
H    -2.19441   0.81534   1.91803
H    -1.20014  -1.41939  -1.08197
H    -0.11398   0.84729   0.69845
H     1.21781  -1.31398  -1.11632
H     3.24606   0.93098   1.70337
H     3.17570   2.03113   0.32572
H     1.68443   1.64507   1.22322
H     4.28061   0.22620  -1.18257
H     4.35737  -0.87496   0.19438
H     3.51238  -1.38511  -1.29736
