41
Generated by autodE on: 2022-06-18. E = -957.246909 Ha. Imaginary frequency = -347.5 cm-1
C     3.79807  -1.05738   2.83958
C     3.39816  -0.71570   1.59422
C     4.13992  -1.18629   0.37008
C     2.20926   0.10805   1.41667
C     1.74246   0.57058   0.22329
C     0.54759   1.35589   0.10440
C     0.08214   1.98379  -1.04856
C     0.92352   2.04081  -2.30313
C    -0.94660   3.08183  -0.89170
C    -1.35484   0.39018  -1.84194
C    -1.99906   0.81785  -3.00295
N    -2.45942   1.28237  -3.96856
N    -1.39701  -0.56565  -1.10004
C    -0.99606  -1.05387   0.06572
C     0.02120  -2.11331   0.06833
C     0.49355  -2.59179  -1.27937
O     0.52224  -2.52027   1.11268
C    -1.56655  -0.47075   1.29149
O    -1.18692  -0.71507   2.42289
O    -2.55998   0.39121   1.01551
C    -3.10935   1.11177   2.12465
H     3.24600  -0.72079   3.72230
H     4.68036  -1.68179   3.00475
H     4.48743  -0.33659  -0.24028
H     3.47977  -1.79144  -0.27360
H     5.01308  -1.79540   0.64270
H     1.65180   0.35850   2.32571
H     2.28858   0.33068  -0.69191
H     0.01757   1.57143   1.03682
H     1.69670   2.82202  -2.19502
H     0.31420   2.30989  -3.17857
H     1.43309   1.09110  -2.51733
H    -1.56920   3.20269  -1.79127
H    -1.60217   2.90378  -0.02678
H    -0.42917   4.04557  -0.73619
H     1.18901  -3.42958  -1.14507
H     1.01363  -1.76549  -1.79373
H    -0.34906  -2.89676  -1.91842
H    -3.88539   1.76277   1.70596
H    -3.54920   0.41969   2.85729
H    -2.33196   1.71615   2.61472
