45
Generated by autodE on: 2022-06-03. E = -1924.444791 Ha. Imaginary frequency = -233.3 cm-1
C     1.62919   4.08409   2.38823
O     1.55120   2.76560   1.82053
C     1.59735   2.68673   0.49325
O     1.75809   3.63279  -0.25397
C     1.43570   1.30046  -0.00721
C     1.86932   1.08104  -1.33460
N     2.18949   1.07328  -2.45558
O     1.22375   0.38940   0.92173
C     0.80556  -0.86599   0.87562
C     0.42786  -1.38046   2.24994
C     1.09881  -0.72648   3.42749
O    -0.32941  -2.32533   2.35802
C     1.55808  -1.79254  -0.02810
O     2.46865  -1.40700  -0.73298
O     1.18767  -3.05482   0.10443
C     1.84955  -4.01441  -0.73533
C    -1.28448  -0.38262  -0.24067
C    -1.40722  -1.65275  -1.04149
F    -1.53186  -2.74217  -0.27455
F    -2.52088  -1.61651  -1.81641
F    -0.37605  -1.85544  -1.88506
C    -2.34787  -0.14688   0.86250
C    -1.84528   0.81818   1.96303
C    -1.72501   2.17640   1.22613
C    -2.16017   1.83054  -0.21249
C    -3.30029   0.80818   0.08643
C    -1.20163   0.85535  -0.89004
Cl   -0.88471   1.07106  -2.57201
H     1.56936   3.94482   3.47307
H     0.78963   4.69862   2.03315
H     2.58028   4.56126   2.11346
H     0.57512  -1.01283   4.34827
H     1.15992   0.36469   3.33083
H     2.13503  -1.10630   3.46584
H     1.69330  -3.75810  -1.79267
H     1.38766  -4.98017  -0.50315
H     2.92569  -4.03900  -0.51388
H    -2.77170  -1.08077   1.24695
H    -2.59988   0.85750   2.76081
H    -0.90572   0.51716   2.42906
H    -0.72336   2.60613   1.27916
H    -2.42477   2.92001   1.63276
H    -2.39787   2.69561  -0.84071
H    -4.10383   1.23218   0.70828
H    -3.72820   0.35627  -0.81797
