23
Generated by autodE on: 2022-10-22. E = -642.535357 Ha
C     4.91294   0.77052  -0.47383
N     3.75217  -0.07285  -0.27155
C     2.50591   0.43286  -0.26034
O     2.25621   1.63898  -0.42764
C     1.42254  -0.53760  -0.03426
N     0.21317  -0.04353  -0.01456
C    -1.01460  -0.59069   0.16179
C    -1.16401  -1.97017   0.37240
N    -1.30066  -3.11873   0.54823
C    -2.11759   0.38196   0.10912
O    -1.86696   1.58554  -0.08981
N    -3.37052  -0.08000   0.28391
C    -4.51698   0.80554   0.23273
H     5.81201   0.14314  -0.47392
H     4.85180   1.30513  -1.43486
H     5.00480   1.52305   0.32600
H     3.88098  -1.06803  -0.11750
H     1.58674  -1.60565   0.11346
H     0.15854   0.98265  -0.16282
H    -3.52367  -1.07267   0.42873
H    -4.62373   1.27277  -0.75977
H    -4.43163   1.61142   0.97847
H    -5.42180   0.22378   0.44579
