30
Generated by autodE on: 2022-10-22. E = -1573.954714 Ha
C    -2.90057   0.37198   3.20671
O    -2.06482   0.30988   2.03761
C    -2.59355   0.73427   0.89546
O    -3.72400   1.14759   0.76901
C    -1.57292   0.71515  -0.25838
O    -2.24258   0.66476  -1.49700
C    -2.89926  -0.56113  -1.78995
C    -0.55127  -0.33327  -0.13018
C     0.54642  -0.84388  -0.17491
C     1.98037  -0.86331  -0.35174
Cl    2.77595  -0.84470   1.29683
Cl    2.53228  -2.36450  -1.21998
C     2.40089   0.38271  -1.14990
C     1.81634   1.71817  -0.64879
C     0.41864   2.15303  -1.17120
C    -0.78636   2.05890  -0.21451
H    -3.19821   1.41139   3.40507
H    -3.79652  -0.24887   3.06618
H    -2.29266  -0.01560   4.03175
H    -3.66584  -0.80649  -1.03570
H    -2.17987  -1.39606  -1.85448
H    -3.38691  -0.43397  -2.76571
H     2.08908   0.20672  -2.19123
H     3.50041   0.41491  -1.13775
H     2.53598   2.48651  -0.96855
H     1.83658   1.73877   0.45321
H     0.17996   1.62702  -2.10974
H     0.49623   3.21624  -1.44393
H    -0.46578   2.23300   0.82361
H    -1.52945   2.83157  -0.46523
