64
Generated by autodE on: 2022-10-24. E = -2303.226167 Ha
C    -2.27544   6.42115   2.76514
N    -2.50947   5.49133   1.67874
C    -3.71711   5.32781   1.13529
O    -4.72367   5.92406   1.54347
C    -3.84890   4.27860  -0.00686
N    -5.22778   4.20409  -0.45380
C    -5.36418   4.71235  -1.83621
C    -6.16427   6.03816  -1.69372
C    -5.44200   7.29420  -1.28166
O    -7.38298   6.00987  -1.73907
C    -6.07658   3.66489  -2.70936
C    -5.78080   2.31420  -2.47385
C    -6.30617   1.30733  -3.28399
C    -7.15663   1.63491  -4.34501
C    -7.47300   2.97526  -4.57792
C    -6.93539   3.98230  -3.77043
C    -3.89757   4.88297  -2.28135
C    -3.05350   4.56048  -1.27358
C    -1.53079   4.35624  -1.28369
O    -1.24821   3.72771  -0.00031
C     0.07646   3.26780   0.21788
C    -1.15524   3.29637  -2.33735
C    -1.93783   2.13174  -2.38741
C    -1.61860   1.08564  -3.25100
C    -0.50074   1.18269  -4.08594
C     0.29742   2.32677  -4.03090
C    -0.02191   3.37064  -3.15531
C    -0.76132   5.71902  -1.32826
C    -1.55480   6.97473  -1.70028
C    -1.81782   7.15865  -3.19856
C    -2.19475   5.90509  -3.98552
C    -3.54948   5.26545  -3.70131
Cl   -4.81156   6.44548  -4.34792
Cl   -3.64854   3.78632  -4.79750
H    -1.20567   6.41988   3.00821
H    -2.84392   6.13960   3.66635
H    -2.57342   7.44377   2.48427
H    -1.75030   4.93082   1.28505
H    -3.51424   3.32153   0.42612
H    -5.82425   4.70759   0.20190
H    -4.44880   7.39077  -1.72966
H    -5.31231   7.26028  -0.18862
H    -6.06403   8.16223  -1.53696
H    -5.12131   2.05585  -1.64546
H    -6.05051   0.26327  -3.08628
H    -7.57310   0.85065  -4.98201
H    -8.14178   3.24550  -5.39903
H    -7.18524   5.01790  -3.98666
H     0.30776   2.38603  -0.40073
H     0.13124   2.98430   1.27817
H     0.82881   4.04931   0.02262
H    -2.81636   2.04350  -1.74754
H    -2.25161   0.19563  -3.27923
H    -0.25154   0.36938  -4.77156
H     1.17975   2.41253  -4.66939
H     0.62585   4.24681  -3.13111
H     0.12528   5.64559  -1.97067
H    -0.37845   5.86857  -0.31050
H    -0.97495   7.84467  -1.35350
H    -2.49241   7.00140  -1.12830
H    -0.89209   7.52936  -3.66832
H    -2.57578   7.94270  -3.35424
H    -2.18804   6.13536  -5.05992
H    -1.43444   5.13078  -3.85013
