30
Generated by autodE on: 2022-10-26. E = -726.010162 Ha
C     3.28507   1.31486   3.91493
N     2.55851   0.61046   2.88117
C     1.57928   1.17082   2.13841
O     1.19694   2.35162   2.27412
C     0.96590   0.30291   1.13402
N     0.02123   0.87246   0.40368
C    -0.75001   0.44168  -0.61676
C    -1.65474   1.39346  -1.23275
C    -1.68709   2.82201  -0.71759
O    -2.39960   1.05967  -2.16736
C    -0.67045  -0.95925  -1.07554
C    -0.76910  -2.03016  -0.16669
C    -0.70987  -3.35222  -0.61165
C    -0.55219  -3.63040  -1.97319
C    -0.45648  -2.57535  -2.88643
C    -0.51462  -1.25284  -2.44348
H     4.36003   1.37138   3.67901
H     3.17275   0.81401   4.88973
H     2.88835   2.33356   3.99430
H     2.79986  -0.35823   2.69483
H     1.25820  -0.73148   0.96904
H    -0.10880   1.85340   0.69864
H    -2.43735   3.37900  -1.29266
H    -1.95792   2.86708   0.35010
H    -0.70946   3.31672  -0.83763
H    -0.90977  -1.82823   0.89741
H    -0.79363  -4.16928   0.10900
H    -0.50494  -4.66499  -2.32109
H    -0.33101  -2.78321  -3.95185
H    -0.43584  -0.43513  -3.16083
