34
Generated by autodE on: 2022-10-24. E = -1577.135409 Ha
C     2.57538   1.64307  -1.83113
O     1.95232   0.39686  -2.09436
C     1.24099  -0.16523  -1.00045
C     2.18495  -0.54510   0.14802
C     3.42592  -1.11453  -0.17569
C     4.29981  -1.52871   0.83065
C     3.94300  -1.38321   2.17617
C     2.70917  -0.81720   2.50438
C     1.83507  -0.39761   1.49530
C     0.13432   0.69115  -0.54363
C    -0.97316   0.97458  -0.14112
C    -2.34634   0.72138   0.22145
Cl   -2.80629   1.58806   1.75846
Cl   -3.44614   1.32544  -1.11003
C    -2.53074  -0.79437   0.41176
C    -1.98087  -1.67771  -0.72602
C    -0.49481  -2.12909  -0.66086
C     0.53377  -1.43193  -1.57115
H     3.02523   1.98246  -2.77432
H     1.83968   2.39578  -1.49396
H     3.36660   1.55857  -1.06672
H     3.70753  -1.22475  -1.22449
H     5.26460  -1.96672   0.56371
H     4.62638  -1.70809   2.96426
H     2.42181  -0.69606   3.55152
H     0.87615   0.04892   1.76279
H    -3.60772  -0.97017   0.55083
H    -2.03148  -1.05331   1.35850
H    -2.59509  -2.59037  -0.70450
H    -2.19480  -1.20410  -1.69816
H    -0.47745  -3.19032  -0.95098
H    -0.14381  -2.11040   0.38449
H     1.33911  -2.13753  -1.82625
H     0.05849  -1.12516  -2.51623
