39
Generated by autodE on: 2022-05-26. E = -918.308572 Ha
C     4.57463  -0.50197  -0.66019
N     3.19786  -0.07619  -0.49444
C     2.31562  -0.80565   0.20041
O     2.58583  -1.88175   0.73894
C     0.90050  -0.24877   0.27339
N     0.26291  -0.39834   1.55082
C    -0.89635   0.47055   1.23629
C    -1.81348   0.80289   2.38731
C    -0.14761   1.70279   0.69958
O    -0.33548   2.88150   0.86506
O     0.94108   1.21869   0.05071
C    -1.49347  -0.35048   0.02626
C    -2.33044  -1.51642   0.57602
C    -2.37608   0.49156  -0.89323
C    -3.27084  -0.22872  -1.86737
O    -2.37841   1.71053  -0.83215
C    -0.14974  -0.82174  -0.73512
C     0.04083  -0.21197  -2.13101
C    -0.01833  -2.34154  -0.85497
H     4.61772  -1.52931  -1.05144
H     5.07149   0.17156  -1.36858
H     5.12115  -0.47860   0.29659
H     2.90085   0.82311  -0.85867
H     0.83847   0.00446   2.29520
H    -1.26572   1.37020   3.15459
H    -2.22179  -0.10378   2.85052
H    -2.64598   1.42619   2.03117
H    -2.59920  -2.22666  -0.21386
H    -3.26371  -1.14140   1.01993
H    -1.77523  -2.06026   1.34844
H    -3.53315   0.44865  -2.69058
H    -4.19764  -0.51103  -1.33998
H    -2.81954  -1.15307  -2.25154
H    -0.13056   0.87090  -2.15679
H     1.06867  -0.39783  -2.47611
H    -0.63908  -0.68751  -2.85079
H     0.00110  -2.84225   0.11979
H     0.91254  -2.59280  -1.38437
H    -0.85193  -2.74726  -1.44470
