20
Generated by autodE on: 2022-05-26. E = -349.355167 Ha
C     2.56493   0.14519   0.14047
C     1.18060   0.05968  -0.46401
O     1.06600  -0.12702  -1.67604
C     0.01480   0.21964   0.45026
C     0.32627   0.81479   1.80589
C    -1.23326  -0.19230   0.07652
C    -2.44363  -0.06108   0.95869
C    -1.55371  -0.84259  -1.24667
H     3.30866  -0.11201  -0.62496
H     2.66662  -0.52759   1.00602
H     2.76249   1.16591   0.50531
H     0.90504   1.74681   1.70852
H     0.93734   0.12843   2.41558
H    -0.57462   1.04822   2.38320
H    -2.28691   0.51747   1.87517
H    -3.26460   0.40551   0.38748
H    -2.80571  -1.06555   1.24173
H    -1.64292  -0.08351  -2.04208
H    -0.77732  -1.54473  -1.57668
H    -2.51694  -1.37074  -1.18432
