19
Generated by autodE on: 2022-05-26. E = -568.917760 Ha
C     3.93228  -0.15822   0.23544
N     2.53303  -0.08299  -0.12907
C     1.53155  -0.10167   0.77047
O     1.66745  -0.18507   1.99925
C     0.18044  -0.01539   0.20349
N    -0.93637  -0.01402   0.91204
C    -2.03906   0.06979   0.10171
C    -3.44495   0.09706   0.57683
C    -1.56055   0.12776  -1.22486
O    -2.06609   0.20678  -2.33838
O    -0.12320   0.06811  -1.08987
H     4.41014  -1.03888  -0.22133
H     4.47387   0.74159  -0.09594
H     4.01234  -0.23765   1.32563
H     2.28948  -0.01056  -1.11292
H    -0.93843  -0.07579   1.93124
H    -4.11287   0.11863  -0.29548
H    -3.69477  -0.79296   1.17814
H    -3.65825   0.98778   1.19190
