39
Generated by autodE on: 2022-05-26. E = -918.265592 Ha. Imaginary frequency = -399.1 cm-1
C     4.57435  -0.29545  -0.47644
N     3.19935   0.13298  -0.30003
C     2.34063  -0.56363   0.45647
O     2.64069  -1.57509   1.10091
C     0.92882  -0.07492   0.47442
N     0.20372  -0.26722   1.63437
C    -0.82882   0.59321   1.64328
C    -1.92572   0.61733   2.63285
C    -0.49490   1.64491   0.70834
O    -1.01659   2.71252   0.45167
O     0.68473   1.23041   0.09389
C    -1.47917  -0.68060  -0.58230
C    -2.28934  -1.64332   0.25401
C    -2.18335   0.42512  -1.23479
C    -3.65272   0.63283  -0.91369
O    -1.64921   1.21566  -2.02847
C    -0.13630  -1.07205  -0.93518
C     0.51543  -0.55722  -2.21171
C     0.22881  -2.52843  -0.67936
H     5.07646  -0.40755   0.49624
H     4.62744  -1.26241  -1.00244
H     5.10677   0.45958  -1.06680
H     2.85389   0.93381  -0.81949
H     0.24595  -1.14254   2.15515
H    -1.60671   1.14114   3.55043
H    -2.23280  -0.40096   2.90893
H    -2.78585   1.16056   2.21852
H    -2.61141  -2.51262  -0.34835
H    -3.18823  -1.18823   0.68232
H    -1.70259  -2.05552   1.08780
H    -4.01513   1.49487  -1.48859
H    -3.80078   0.82918   0.15970
H    -4.25351  -0.25404  -1.16884
H     0.57265   0.53224  -2.25776
H     1.52551  -0.97841  -2.31325
H    -0.07316  -0.89018  -3.08273
H     0.07070  -2.84604   0.35915
H     1.27991  -2.71885  -0.93273
H    -0.39144  -3.17860  -1.31958
