39
Generated by autodE on: 2022-05-30. E = -1101.537583 Ha. Imaginary frequency = -155.4 cm-1
C     3.56653   0.91412   2.57200
N     3.26202   0.46650   1.22741
C     2.18511   0.94013   0.57000
O     1.48399   1.84809   1.04630
C     1.91132   0.31752  -0.75490
C     2.88043  -0.63608  -1.38043
N     0.98151   0.85176  -1.55499
C    -0.13295   1.53595  -1.19355
C    -1.05377   1.91514  -2.19352
N    -1.86415   2.20005  -2.98424
C    -1.10545  -0.38812  -0.16265
C    -1.98332   0.44363   0.66328
O    -3.12718   0.72889   0.34542
O    -1.40084   0.86578   1.79017
C    -2.17313   1.72088   2.64226
C    -1.64764  -1.11744  -1.41644
C    -2.24249  -2.44812  -0.92759
C    -1.18718  -3.18805  -0.56831
C     0.03601  -2.29674  -0.84350
O    -0.40822  -1.56629  -1.99333
C    -0.00770  -1.15364   0.22023
C     0.54377  -1.30018   1.50726
N     1.03642  -1.47204   2.55136
H     3.76072   1.99756   2.59426
H     4.46161   0.38733   2.92431
H     2.73232   0.70040   3.25835
H     3.78463  -0.31472   0.84984
H     3.04113  -1.50951  -0.73016
H     2.49980  -1.00334  -2.34288
H     3.86113  -0.16024  -1.55029
H     0.93709   0.42233  -2.48129
H    -0.10217   2.08583  -0.25723
H    -2.46975   2.63229   2.10318
H    -3.07197   1.19906   3.00138
H    -1.51923   1.97461   3.48438
H    -2.23884  -0.51851  -2.11483
H    -3.30709  -2.66224  -0.84280
H    -1.15037  -4.17609  -0.11113
H     1.00350  -2.78217  -1.00001
