18
Generated by autodE on: 2022-10-13. E = -489.757819 Ha
C     1.24340   1.46200  -2.65878
N     0.66371   0.52440  -1.72068
C     0.41561   0.87899  -0.44835
O     0.66129   2.01476  -0.00278
C    -0.17434  -0.13246   0.46133
C    -0.39911   0.29564   1.78997
N    -0.58216   0.65654   2.88455
N    -0.50906  -1.41028   0.12912
C    -1.09449  -2.26280   1.19854
N    -0.33865  -1.87946  -1.04859
H     0.59621   2.34262  -2.80156
H     2.22515   1.82277  -2.31189
H     1.37366   0.96034  -3.62552
H     0.42307  -0.43215  -1.98840
H    -0.38073  -2.33827   2.02747
H    -1.28987  -3.25302   0.77552
H    -2.02788  -1.80508   1.54751
H    -0.66320  -2.84998  -1.05910
