18
Generated by autodE on: 2022-10-06. E = -489.750319 Ha
C     3.30366   0.42906  -0.21947
N     1.97441  -0.13898  -0.30376
C     0.86201   0.51872   0.10826
O     0.90810   1.66243   0.58094
C    -0.40100  -0.24235  -0.05072
C    -0.37447  -1.55918  -0.56175
N    -0.33831  -2.64778  -0.98505
N    -1.64240   0.24458   0.27959
C    -1.79113   1.61615   0.81883
N    -2.74783  -0.38121   0.16726
H     3.95873  -0.18923   0.41480
H     3.76420   0.50901  -1.21707
H     3.23463   1.43164   0.21726
H     1.88940  -1.07415  -0.68755
H    -1.23435   1.69850   1.75681
H    -2.86316   1.76140   0.97470
H    -1.38865   2.33430   0.09856
H    -2.55770  -1.32021  -0.21258
