31
Generated by autodE on: 2022-10-06. E = -734.973816 Ha. Imaginary frequency = -294.0 cm-1
C     2.83223   1.17846  -1.94425
N     1.91878   0.33388  -1.19629
C     1.13686   0.84808  -0.24929
O     1.15138   2.03127   0.08981
C     0.15807  -0.11574   0.50343
C    -0.14825   0.51528   1.78591
N    -0.42404   1.00757   2.79729
N     0.63929  -1.47584   0.68777
C     0.16315  -2.26229   1.83898
N     0.69990  -2.01174  -0.50480
N    -0.97461  -1.56070  -1.15362
C    -1.24401  -0.34624  -0.40335
N    -2.30936  -0.63719   0.52284
N    -1.39432   0.74692  -1.34071
C    -1.91603   1.99005  -0.77268
H     3.42546   0.54626  -2.61528
H     3.50995   1.71849  -1.26643
H     2.28309   1.92201  -2.54382
H     1.80599  -0.65038  -1.43178
H     0.60521  -3.26269   1.76124
H     0.51705  -1.78967   2.76231
H    -0.93448  -2.32077   1.83968
H     0.67661  -3.04084  -0.44063
H    -0.80508  -1.42683  -2.15314
H    -1.62676  -2.32429  -0.95443
H    -2.45420   0.13594   1.17201
H    -3.18289  -0.74538   0.00131
H    -2.03129   0.43836  -2.07659
H    -2.03661   2.71565  -1.58860
H    -1.20607   2.41678  -0.05375
H    -2.89394   1.87130  -0.27292
