32
Generated by autodE on: 2022-10-06. E = -1026.157619 Ha
C     2.70916  -2.09524   0.25694
C     1.78870  -1.33081  -0.65584
O     1.69613  -1.60497  -1.83783
C     0.95382  -0.18013  -0.02986
C     1.98061   0.97593   0.11508
C     1.69581   2.06085   1.11417
O     3.06858   0.87724  -0.43692
N     0.44620  -0.59822   1.29005
C    -0.91053  -1.12442   1.06270
C    -1.70677  -1.19527   2.36830
C    -0.79517  -2.49800   0.52434
N    -0.71337  -3.57365   0.09584
C    -1.52796  -0.22212  -0.05722
C    -2.27012   0.96696   0.59484
O    -1.57400   1.85497   1.16047
O    -3.52473   0.92518   0.56917
C    -0.29454   0.14943  -0.90865
C    -0.35674   1.54707  -1.54589
O     0.70898   2.21996  -1.57934
O    -1.45755   1.88602  -2.04598
H     2.13854  -2.92827   0.69931
H     3.53493  -2.51864  -0.33113
H     3.09187  -1.48197   1.08156
H     2.06032   1.71634   2.09893
H     2.26314   2.96002   0.84038
H     0.62423   2.27626   1.19566
H     0.32117   0.23205   1.86910
H    -1.23873  -1.90201   3.06792
H    -2.73845  -1.51438   2.16923
H    -1.72920  -0.19953   2.83170
H    -2.26508  -0.78892  -0.63798
H    -0.25486  -0.52959  -1.77341
