22
Generated by autodE on: 2022-10-13. E = -571.058947 Ha
C     2.05399  -0.62954  -1.84277
C     0.97642  -0.73997  -0.79316
O     0.51399  -1.85800  -0.51501
C     0.53184   0.44575  -0.07928
N    -0.41649   0.28704   0.92006
C    -1.41337  -0.55711   1.07946
C    -2.15046  -0.61412   2.37693
C    -1.90341  -1.35640   0.00755
N    -2.47600  -1.96092  -0.80659
C     1.14089   1.76502  -0.17608
C     0.65721   2.85067   0.76967
O     2.01865   2.03369  -1.00472
H     2.98465  -0.22751  -1.41746
H     2.23060  -1.63256  -2.25410
H     1.75217   0.06038  -2.64398
H    -0.32041   0.92937   1.71263
H    -1.93616  -1.56940   2.88545
H    -3.23629  -0.56521   2.20558
H    -1.83967   0.21047   3.03413
H     1.20370   3.77447   0.54281
H    -0.42354   3.03406   0.66292
H     0.85238   2.58408   1.82323
