32
Generated by autodE on: 2022-10-06. E = -1026.093930 Ha. Imaginary frequency = -368.1 cm-1
C     2.50767  -1.38868  -1.61140
C     1.86543  -1.40383  -0.25131
O     1.86954  -2.43271   0.42561
C     1.24267  -0.17326   0.29288
C     1.88602   1.14013   0.06310
C     1.57792   2.27237   1.01302
O     2.63888   1.32432  -0.89271
N     0.46407  -0.28525   1.42482
C    -0.65689  -1.05819   1.51554
C    -1.51129  -0.89097   2.74753
C    -0.71522  -2.38841   0.97338
N    -0.95557  -3.45453   0.57218
C    -1.69259  -0.17323  -0.17711
C    -2.32761   1.05256   0.46520
O    -1.62977   1.77905   1.22652
O    -3.55030   1.21510   0.21878
C    -0.68712  -0.14268  -1.15543
C    -0.23944   1.05463  -1.96601
O    -0.51249   2.21751  -1.56685
O     0.37549   0.78232  -3.03819
H     2.59472  -2.42813  -1.95831
H     3.51706  -0.95546  -1.53287
H     1.94211  -0.77446  -2.32353
H     2.13616   3.15894   0.68837
H     1.86983   2.01890   2.04567
H     0.49841   2.48378   1.00602
H     0.28311   0.60822   1.88444
H    -1.12664  -1.51410   3.57151
H    -2.54233  -1.20409   2.53270
H    -1.51959   0.16121   3.05689
H    -2.37480  -1.02700  -0.23390
H    -0.50180  -1.09069  -1.67035
