55
Generated by autodE on: 2022-06-03. E = -1286.093620 Ha
C     3.17855   3.58420   1.77918
O     2.70699   2.80263   0.67005
C     1.74467   1.91948   0.92694
O     1.22836   1.79066   2.02123
C     1.32126   1.13435  -0.31691
N    -0.08037   1.35495  -0.62426
C    -0.50844   2.73928  -0.67442
C    -0.92283   0.30745  -0.04781
C    -1.33895   0.69237   1.39635
O    -1.92549   1.72692   1.64803
O    -1.02261  -0.20204   2.33077
C    -1.30977   0.15174   3.69134
C    -2.21986   0.09431  -0.83115
C    -3.26689  -0.63298  -0.24488
C    -4.42923  -0.91709  -0.96477
C    -4.56352  -0.47398  -2.28462
C    -3.52452   0.25039  -2.87496
C    -2.35946   0.53025  -2.15398
C    -0.00575  -0.95107  -0.10140
C    -0.07456  -1.80779  -1.38968
C     0.74974  -3.09008  -1.12994
C     2.22198  -2.58580  -1.19316
C     2.05414  -1.06934  -1.42029
C     0.84264  -1.04752  -2.36550
C     1.46475  -0.40772  -0.12695
C     2.39614  -0.72518   1.04332
C     1.97659  -1.66724   2.12958
O     3.49467  -0.18462   1.06140
H     3.60573   2.92581   2.54929
H     2.35650   4.17135   2.21251
H     3.95048   4.24905   1.37537
H     1.94548   1.49114  -1.14966
H    -1.55561   2.80272  -0.99588
H     0.11091   3.27649  -1.41114
H    -0.42629   3.27022   0.29269
H    -0.74374   1.05125   3.97150
H    -0.99221  -0.70296   4.29933
H    -2.38544   0.33582   3.82230
H    -3.17226  -0.99625   0.78149
H    -5.23252  -1.48739  -0.49226
H    -5.47323  -0.69273  -2.84876
H    -3.61742   0.60032  -3.90599
H    -1.54771   1.08308  -2.62570
H    -0.21818  -1.57789   0.76593
H    -1.09618  -2.00829  -1.73093
H     0.49739  -3.54813  -0.16194
H     0.55211  -3.83764  -1.91220
H     2.80815  -2.83473  -0.29727
H     2.75355  -3.02114  -2.05200
H     2.96638  -0.55798  -1.75345
H     1.03269  -1.60575  -3.29529
H     0.48926  -0.04058  -2.61297
H     1.54311  -2.59354   1.72715
H     1.18606  -1.17612   2.71894
H     2.83484  -1.89226   2.77570
