22
Generated by autodE on: 2022-06-03. E = -425.585585 Ha
C     2.91412   0.15111   0.60451
C     1.78907  -0.47461  -0.18293
O     1.96688  -1.49571  -0.84871
C     0.46579   0.15771  -0.13409
C     0.03981   1.14229   0.69284
C    -1.44957   1.29320   0.48847
C    -2.08691   0.00377   1.11617
C    -1.61107  -1.12531   0.15819
C    -0.75316  -0.35069  -0.89133
C    -1.56344   0.95611  -1.01643
H     2.69287   0.09765   1.68269
H     3.85154  -0.38246   0.39964
H     3.02532   1.21601   0.34898
H     0.62374   1.65579   1.45904
H    -1.89349   2.23234   0.84117
H    -3.18296   0.09903   1.11523
H    -1.76342  -0.14576   2.15614
H    -1.02205  -1.90293   0.66509
H    -2.46356  -1.61531  -0.33550
H    -0.53441  -0.91077  -1.80806
H    -2.60193   0.79861  -1.34629
H    -1.07763   1.70396  -1.66094
