33
Generated by autodE on: 2022-07-27. E = -860.440959 Ha
C     4.59794   0.71041   1.20165
O     3.61112   1.32771   0.37418
C     2.40077   0.71356   0.31941
O     2.16726  -0.31520   0.95339
C     1.53064   1.39741  -0.59308
N     0.29358   0.96407  -0.92796
C    -0.17924   1.44267  -2.25000
C    -0.50279   0.16282  -0.18733
C    -0.40646   0.12727   1.28540
O    -0.78411  -0.81614   1.96131
O     0.02089   1.27641   1.82853
C     0.22755   1.28023   3.24377
C    -1.51354  -0.69438  -0.82505
C    -2.80454  -0.82408  -0.27169
C    -3.75696  -1.64655  -0.87106
C    -3.44417  -2.35899  -2.03467
C    -2.16533  -2.24735  -2.58901
C    -1.20790  -1.42913  -1.98874
H     4.24745   0.63461   2.24236
H     4.84830  -0.29664   0.83456
H     5.48392   1.35519   1.15195
H     1.93357   2.21493  -1.18531
H     0.09835   2.50074  -2.33321
H     0.31007   0.87981  -3.05396
H    -1.26547   1.34162  -2.31810
H     0.64980   2.26293   3.48523
H     0.93235   0.48622   3.52981
H    -0.72245   1.13580   3.77910
H    -3.06365  -0.26528   0.62910
H    -4.75376  -1.72747  -0.43120
H    -4.19257  -3.00221  -2.50326
H    -1.90608  -2.81046  -3.48867
H    -0.20496  -1.37376  -2.41524
