55
Generated by autodE on: 2022-06-03. E = -1286.006836 Ha. Imaginary frequency = -237.9 cm-1
C     3.66876   2.59503   2.34818
O     2.86783   2.51836   1.16673
C     1.61421   2.02065   1.31385
O     1.17965   1.67967   2.40701
C     0.95176   2.01379   0.02700
N    -0.34934   1.74547  -0.26189
C    -0.86171   2.54709  -1.39926
C    -1.09586   0.71754   0.28624
C    -1.16308   0.65618   1.80285
O    -1.08291  -0.34490   2.48368
O    -1.53204   1.84546   2.28561
C    -1.69889   1.93880   3.70695
C    -2.39620   0.31130  -0.32017
C    -3.50745   0.01889   0.50221
C    -4.71800  -0.41564  -0.03716
C    -4.86385  -0.56905  -1.41791
C    -3.77761  -0.28593  -2.25003
C    -2.56388   0.14075  -1.71264
C     0.32612  -1.03788  -0.09276
C     0.07732  -1.56974  -1.49474
C     1.01585  -2.81465  -1.62976
C     2.43687  -2.18307  -1.71130
C     2.14087  -0.65954  -1.55058
C     0.84163  -0.54897  -2.36178
C     1.63192  -0.52151  -0.11653
C     2.60177  -0.60982   0.98113
C     2.16763  -1.15571   2.31821
O     3.79156  -0.33791   0.78153
H     3.80956   1.60130   2.79561
H     4.63727   2.99935   2.03000
H     3.20866   3.26583   3.08940
H     1.45340   2.62081  -0.72587
H    -0.50969   3.57565  -1.26668
H    -1.95432   2.54748  -1.38728
H    -0.50096   2.17026  -2.36525
H    -2.48589   1.25104   4.04843
H    -0.75422   1.70114   4.21488
H    -1.98823   2.97657   3.90892
H    -3.44446   0.13295   1.58391
H    -5.55489  -0.62887   0.63171
H    -5.81228  -0.90776  -1.84072
H    -3.86774  -0.40637  -3.33200
H    -1.74029   0.32623  -2.39511
H    -0.10492  -1.52386   0.78100
H    -0.96563  -1.78205  -1.75116
H     0.89989  -3.50419  -0.78082
H     0.76655  -3.36902  -2.54723
H     3.12306  -2.55546  -0.93750
H     2.90190  -2.37489  -2.69044
H     2.97294  -0.00019  -1.82297
H     0.41434   0.45737  -2.35489
H     0.95803  -0.87957  -3.40485
H     2.89369  -0.87312   3.09229
H     1.15872  -0.84132   2.60302
H     2.15923  -2.25695   2.23633
