53
Generated by autodE on: 2022-10-22. E = -1433.686742 Ha
C    -3.10564 -14.05762  -5.16666
N    -2.02154 -14.73594  -5.85347
C    -1.62324 -16.01112  -5.70540
O    -0.76824 -16.54784  -6.40968
N    -2.30386 -16.74496  -4.68109
N    -2.18567 -16.16974  -3.38736
N    -1.19134 -16.97947  -2.77504
C    -0.31377 -16.48994  -1.85319
O     0.58963 -17.15452  -1.36288
O    -0.58450 -15.22423  -1.52545
C     0.28314 -14.62816  -0.54952
C    -1.20854 -18.26772  -3.39675
C    -1.90137 -18.12328  -4.54597
C    -2.38509 -19.12390  -5.57317
F    -3.00628 -18.38851  -6.60429
O    -1.27280 -19.73127  -6.13820
C    -1.49140 -20.79567  -7.06291
C    -3.48820 -20.05056  -5.02563
C    -3.39355 -20.50346  -3.56739
C    -2.20578 -21.38071  -3.16572
C    -0.79344 -20.82055  -3.36626
C    -0.47099 -19.41667  -2.74948
C     1.06010 -19.25529  -3.00443
C     1.48710 -18.40300  -4.16850
O     1.86362 -19.90445  -2.36436
C    -0.87642 -19.49283  -1.25557
C    -0.02086 -20.23056  -0.26795
O    -1.94582 -19.01356  -0.91665
H    -3.49339 -13.26585  -5.82201
H    -2.78303 -13.60336  -4.21751
H    -3.92201 -14.76006  -4.95352
H    -1.48782 -14.21017  -6.53936
H    -3.06311 -16.37417  -2.89550
H    -0.08403 -13.60462  -0.41256
H     0.23243 -15.18013   0.39978
H     1.32074 -14.61318  -0.91250
H    -0.55253 -20.91302  -7.61988
H    -1.71983 -21.74133  -6.54635
H    -2.29871 -20.55286  -7.77009
H    -3.58154 -20.91730  -5.69572
H    -4.41591 -19.47068  -5.13402
H    -4.31135 -21.07694  -3.35951
H    -3.43986 -19.62384  -2.90964
H    -2.33832 -21.65508  -2.10613
H    -2.24707 -22.32784  -3.73025
H    -0.08017 -21.52197  -2.91290
H    -0.54747 -20.77152  -4.43102
H     2.57635 -18.47292  -4.28211
H     0.98482 -18.75352  -5.08271
H     1.19426 -17.35217  -4.03865
H    -0.58342 -20.33217   0.66941
H     0.90442 -19.66569  -0.08736
H     0.27550 -21.21776  -0.64681
