34
Generated by autodE on: 2022-10-22. E = -831.448904 Ha
C     2.74246  -2.63630   0.84917
O     1.68231  -2.84063  -0.08299
C     0.42923  -2.41122   0.32030
F     0.00961  -3.22038   1.38706
C     0.39783  -0.99553   0.72525
C     0.18415   0.18087   0.52750
C    -0.25986   1.40516  -0.12474
C     0.76208   2.55808   0.07263
C     0.63107   3.75219  -0.82363
O     1.61650   2.46699   0.93241
C    -1.60042   1.92043   0.49487
C    -1.78337   1.72713   1.96894
O    -2.41816   2.47316  -0.21056
C    -0.44527   1.05241  -1.63186
C    -1.21286  -0.25480  -1.92157
C    -0.41174  -1.58563  -1.99673
C    -0.55480  -2.59210  -0.83860
H     2.88733  -1.56222   1.05521
H     3.65138  -3.04212   0.38682
H     2.54625  -3.16430   1.79542
H     1.23919   4.57689  -0.43062
H     0.99307   3.48595  -1.83039
H    -0.41957   4.05806  -0.93002
H    -2.00566   0.66489   2.16227
H    -0.85370   1.96280   2.50932
H    -2.61527   2.34534   2.32966
H     0.55106   1.00644  -2.09788
H    -0.98149   1.89305  -2.09114
H    -2.05198  -0.35956  -1.21342
H    -1.68119  -0.10730  -2.90668
H     0.65798  -1.37592  -2.16352
H    -0.74918  -2.11510  -2.90023
H    -0.39613  -3.61829  -1.20584
H    -1.56827  -2.54527  -0.41210
