53
Generated by autodE on: 2022-10-22. E = -1433.597409 Ha. Imaginary frequency = -366.1 cm-1
C    -4.53197 -15.61204  -5.82402
N    -3.13849 -15.36473  -6.14643
C    -2.05402 -15.61538  -5.40595
O    -0.90878 -15.27946  -5.71664
N    -2.32997 -16.28079  -4.15032
N    -1.36591 -16.00768  -3.31267
N    -1.33537 -16.79760  -2.26483
C    -0.25497 -16.62654  -1.40273
O    -0.04989 -17.40518  -0.48865
O     0.48910 -15.55168  -1.65972
C     1.66282 -15.37184  -0.84965
C    -1.28084 -18.60643  -3.28419
C    -1.89499 -18.32319  -4.34088
C    -2.43020 -18.84141  -5.62211
F    -3.77165 -18.40713  -5.72415
O    -1.69930 -18.25356  -6.64632
C    -2.11034 -18.53691  -7.98357
C    -2.49684 -20.37121  -5.67006
C    -1.16302 -21.10934  -5.82665
C    -0.06102 -20.81006  -4.80120
C    -0.48854 -20.95220  -3.32868
C    -0.48434 -19.59457  -2.52369
C     0.98880 -19.11147  -2.45610
C     1.97834 -19.82098  -1.58096
O     1.33412 -18.17877  -3.16305
C    -1.10639 -19.95166  -1.15096
C    -2.54513 -19.58222  -0.94018
O    -0.47770 -20.60370  -0.34029
H    -4.97874 -16.31335  -6.54290
H    -5.09627 -14.66704  -5.85696
H    -4.60857 -16.03855  -4.82068
H    -2.93521 -14.93135  -7.04402
H    -0.47470 -15.67209  -3.72772
H     2.11245 -14.42900  -1.18045
H     1.39005 -15.31424   0.21308
H     2.35947 -16.20636  -1.01301
H    -1.53053 -17.86364  -8.62828
H    -1.89582 -19.57848  -8.26918
H    -3.18258 -18.33208  -8.12066
H    -3.15327 -20.63677  -6.51286
H    -3.02239 -20.69114  -4.75843
H    -0.75579 -20.91469  -6.83155
H    -1.39618 -22.18676  -5.79617
H     0.34087 -19.80274  -4.98411
H     0.77478 -21.49921  -4.99664
H     0.16388 -21.64974  -2.78739
H    -1.50654 -21.36332  -3.25513
H     2.98981 -19.51364  -1.87788
H     1.79756 -19.52212  -0.53761
H     1.87461 -20.91205  -1.62658
H    -3.15401 -20.01072  -1.75260
H    -2.88643 -19.96775   0.02898
H    -2.67032 -18.49203  -0.99004
