59
Generated by autodE on: 2022-06-09. E = -1554.081445 Ha. Imaginary frequency = -262.3 cm-1
C     1.21802   1.71450   3.97196
N     0.92981   1.09392   2.69270
C     1.51411   1.52522   1.58072
O     2.36240   2.42543   1.55458
C     1.16979   0.91104   0.20994
C     2.32338   0.58168  -0.63176
C     3.47296   0.03090  -0.02584
C     4.55305  -0.37881  -0.80311
C     4.51330  -0.23999  -2.19544
C     3.38259   0.31485  -2.80366
C     2.29562   0.72196  -2.03148
O     0.08653   1.29432  -0.44551
C    -1.20730   1.36157  -0.07137
C    -2.17626   1.19599  -1.18221
O    -3.39022   1.06086  -0.96039
N    -1.67442   1.19611  -2.43521
C    -2.48218   0.80277  -3.57197
C    -1.62898   2.17775   1.08023
O    -2.70196   2.08464   1.64891
O    -0.71337   3.10733   1.38993
C    -1.01062   3.95925   2.50426
C    -0.97089  -1.13418   0.60055
C    -1.83393  -0.88195   1.75895
C    -3.30472  -1.12758   1.59724
O    -1.37257  -0.47272   2.83182
C    -1.41051  -1.84566  -0.67763
C    -1.31559  -3.37116  -0.33805
C     0.21631  -3.60795  -0.20286
C     0.81749  -2.19952  -0.51976
C    -0.16990  -1.69787  -1.58273
C     0.40812  -1.34471   0.65482
F     1.10533  -1.48999   1.79632
H     1.19148   2.81074   3.89777
H     0.46461   1.38290   4.69745
H     2.21604   1.42479   4.34077
H     0.18052   0.38935   2.66830
H     3.50714  -0.10313   1.05639
H     5.43145  -0.81198  -0.31990
H     5.36288  -0.55899  -2.80327
H     3.34790   0.43774  -3.88833
H     1.42862   1.16787  -2.51675
H    -0.67225   1.27436  -2.55705
H    -2.71660  -0.27555  -3.55041
H    -3.43064   1.35836  -3.58552
H    -1.92943   1.02331  -4.49359
H    -1.22176   3.36244   3.40199
H    -1.87887   4.59417   2.27522
H    -0.11822   4.57694   2.65399
H    -3.49578  -2.18042   1.33699
H    -3.67985  -0.51036   0.76642
H    -3.82790  -0.87111   2.52696
H    -2.37389  -1.52854  -1.08939
H    -1.74246  -3.95535  -1.16646
H    -1.86928  -3.62859   0.57499
H     0.58372  -4.33390  -0.94210
H     0.51273  -3.96042   0.79501
H     1.88752  -2.18869  -0.75453
H    -0.21351  -2.36030  -2.45850
H     0.02402  -0.67831  -1.91875
