20
Generated by autodE on: 2022-06-18. E = -457.715328 Ha
C    -3.12552   0.51550  -0.23727
N    -1.81838  -0.11826  -0.18032
C    -1.73132  -1.50975  -0.04746
C    -0.56281  -2.15116   0.11101
C     0.76739  -1.44101   0.16388
C     0.57236   0.06133   0.03765
C     1.71612   0.98720   0.07011
N     2.93916   0.41951   0.22105
O     1.60200   2.22576  -0.03197
C    -0.66687   0.60759  -0.11578
H    -3.00275   1.58078  -0.46977
H    -3.66173   0.42463   0.72275
H    -3.74366   0.05516  -1.02328
H    -2.68699  -2.03561  -0.08654
H    -0.57587  -3.23987   0.19992
H     1.29691  -1.69423   1.10527
H     1.43393  -1.82196  -0.63722
H     3.75417   1.02244   0.24555
H     3.07441  -0.58027   0.29869
H    -0.77879   1.68963  -0.20099
