17
Generated by autodE on: 2022-06-18. E = -418.330251 Ha
C    -1.96489  -1.11619   0.44884
N    -1.35407  -0.03564   0.06172
C    -2.17166   1.13921  -0.30896
C     0.04439   0.12301  -0.04047
C     0.52017   1.37555  -0.47863
N     0.95794   2.39934  -0.83899
C     0.98126  -0.92164   0.27476
C     2.45148  -0.59145   0.10478
O     0.64420  -2.05424   0.66821
H    -3.05383  -1.10458   0.48152
H    -1.36935  -1.98320   0.72308
H    -1.90468   1.98369   0.33842
H    -3.22930   0.88984  -0.18154
H    -1.97133   1.40321  -1.35480
H     3.04416  -1.47032   0.38990
H     2.67895  -0.32329  -0.93904
H     2.74370   0.26443   0.73311
