37
Generated by autodE on: 2022-06-18. E = -876.027319 Ha. Imaginary frequency = -459.8 cm-1
C     3.14994   0.33843  -0.88337
C     2.12919  -0.70946  -0.50771
O     2.01199  -1.74531  -1.17244
C     1.32632  -0.44126   0.68266
C     1.70482   0.62720   1.52752
N     1.99304   1.54328   2.19239
N     0.35399  -1.30481   1.15147
C    -0.03324  -1.23420   2.56329
C    -0.52245  -1.82997   0.24599
C    -1.60627  -0.39445  -0.38303
N    -2.50591  -0.02406   0.64318
C    -3.40314  -1.02768   1.18424
C    -2.22718   1.10961   1.40116
C    -1.34286   2.04985   1.02843
C    -0.59802   1.96040  -0.27359
C    -0.70575   0.58351  -0.89238
C    -0.07048   0.43693  -2.21442
N    -0.31594  -0.67290  -2.95309
O     0.66909   1.33614  -2.66106
H     3.96856   0.35345  -0.14526
H     3.55996   0.09515  -1.87174
H     2.70212   1.34206  -0.90633
H    -0.75895  -2.02803   2.77024
H    -0.48075  -0.25962   2.80544
H     0.85394  -1.38561   3.19225
H    -0.07344  -2.12793  -0.69913
H    -1.22777  -2.55170   0.66360
H    -2.09359  -1.04258  -1.12080
H    -3.73247  -1.70056   0.37986
H    -4.29372  -0.53904   1.60436
H    -2.94006  -1.63890   1.98022
H    -2.80053   1.19100   2.32720
H    -1.18717   2.91922   1.66918
H     0.45684   2.25691  -0.14778
H    -0.99691   2.69991  -0.99972
H     0.19630  -0.78489  -3.82134
H    -0.90676  -1.43610  -2.65108
