27
Generated by autodE on: 2022-07-27. E = -798.095458 Ha
C     4.63712   1.72500   1.15658
N     3.19018   1.66993   1.15070
C     2.48185   0.73935   0.48790
O     2.97471  -0.17525  -0.19242
C     1.01330   0.86653   0.61534
N     0.33130  -0.03886  -0.03104
C    -0.99036  -0.33872  -0.22146
C    -2.07811   0.43032   0.35871
O    -3.27076   0.20256   0.21385
O    -1.63782   1.46752   1.10506
C    -2.63900   2.28695   1.71740
C    -1.25850  -1.49886  -1.06391
O    -2.35477  -1.94468  -1.36284
O    -0.10869  -2.06811  -1.50948
C    -0.23827  -3.22001  -2.34687
H     5.02996   1.61536   2.17957
H     5.02606   0.90860   0.53744
H     4.99414   2.68377   0.74934
H     2.67703   2.37233   1.67632
H     0.52476   1.64348   1.19511
H     0.96138  -0.69673  -0.52593
H    -2.09632   3.06331   2.26964
H    -3.28520   2.74671   0.95541
H    -3.25798   1.69491   2.40733
H    -0.75648  -4.03123  -1.81465
H     0.78359  -3.52757  -2.59830
H    -0.79456  -2.97391  -3.26332
