27
Generated by autodE on: 2022-06-03. E = -798.098044 Ha
C     5.37582  -0.00306  -0.01881
N     4.02764   0.51616   0.07666
C     2.92545  -0.24223  -0.06023
O     2.92927  -1.46295  -0.28536
C     1.64828   0.49151   0.07934
N     0.57540  -0.23627  -0.05295
C    -0.77144  -0.00211  -0.00161
C    -1.23837   1.34453   0.26174
O    -0.48309   2.29945   0.43372
O    -2.57432   1.48096   0.30871
C    -3.06758   2.79983   0.56387
C    -1.53117  -1.22753  -0.23112
O    -0.97694  -2.30786  -0.43389
O    -2.86050  -1.09817  -0.20817
C    -3.62272  -2.29168  -0.42586
H     5.32767  -1.07740  -0.23026
H     5.92398   0.15100   0.92392
H     5.93150   0.49581  -0.82806
H     3.90175   1.50697   0.26341
H     1.57540   1.55675   0.27954
H     0.78331  -1.23563  -0.24158
H    -2.74295   3.49856  -0.22137
H    -4.16093   2.71606   0.56335
H    -2.71843   3.16712   1.54032
H    -3.40396  -3.04025   0.34963
H    -4.67484  -1.98837  -0.37048
H    -3.40389  -2.71899  -1.41534
