24
Generated by autodE on: 2022-06-03. E = -688.223163 Ha
C     3.84251  -0.45144   0.12530
O     2.43524  -0.72973   0.17712
C     1.61991   0.31411   0.37807
O     2.01389   1.45438   0.52741
C     0.21797  -0.14106   0.40669
C    -0.94320   0.44005   0.03257
C    -1.31775   1.71069  -0.62725
C    -0.38550   2.88365  -0.62780
O    -2.41490   1.75501  -1.17750
C    -1.99523  -0.69163   0.17333
C    -1.69576  -1.71775  -0.94065
C    -0.54592  -2.29112  -0.57556
C    -0.17152  -1.60416   0.75625
O    -1.46828  -1.37528   1.32003
H     4.33429  -1.41578  -0.04517
H     4.06570   0.24224  -0.69803
H     4.17986  -0.01244   1.07529
H    -0.88389   3.74346  -1.09381
H    -0.06847   3.12628   0.39676
H     0.52937   2.63231  -1.18674
H    -3.03165  -0.37010   0.30881
H    -2.29619  -1.85524  -1.83887
H     0.06632  -3.03173  -1.08803
H     0.49991  -2.13506   1.43733
