51
Generated by autodE on: 2022-06-03. E = -1486.328914 Ha. Imaginary frequency = -227.6 cm-1
C     4.06250  -0.07313   2.92549
N     2.64117   0.04865   2.66431
C     1.97388  -0.86566   1.94160
O     2.48541  -1.90404   1.50076
C     0.55560  -0.52556   1.64550
N    -0.16795  -1.52756   1.12930
C    -1.40674  -1.42603   0.57657
C    -2.48063  -0.59560   1.16216
O    -3.61899  -0.53005   0.73572
O    -2.06594   0.09972   2.22681
C    -2.99221   1.03060   2.80397
C    -1.76447  -2.48096  -0.39696
O    -2.81792  -2.56490  -1.00055
O    -0.74597  -3.33234  -0.59024
C    -0.91807  -4.33760  -1.59780
C    -0.50542   0.42534  -0.87265
C    -1.76652   1.17088  -1.00564
C    -2.67679   0.75138  -2.12964
O    -2.07144   2.08761  -0.24433
C     0.06136  -0.44003  -2.03302
C     0.78739   0.54302  -2.96524
C     1.87762   0.91684  -2.28609
C     1.80230   0.14666  -0.95904
O     1.16973  -1.06882  -1.37327
C     0.63986   0.76844  -0.12074
C     0.91545   2.07783   0.52580
O     1.80821   2.80802   0.13066
O     0.15599   2.36083   1.58135
C     0.38703   3.61637   2.23579
H     4.64374  -0.04263   1.98965
H     4.28692  -1.02215   3.43558
H     4.37757   0.75865   3.56634
H     2.14905   0.88537   2.96499
H     0.05238   0.24300   2.21924
H     0.40860  -2.28290   0.74057
H    -2.42865   1.57140   3.57301
H    -3.35825   1.72647   2.03815
H    -3.83954   0.49702   3.25791
H     0.01680  -4.90879  -1.61381
H    -1.09561  -3.86858  -2.57622
H    -1.76293  -4.99384  -1.34548
H    -2.89192  -0.32565  -2.06516
H    -3.61028   1.32617  -2.08194
H    -2.18531   0.92996  -3.10038
H    -0.61232  -1.16757  -2.49356
H     0.41170   0.88886  -3.92742
H     2.64663   1.64334  -2.54284
H     2.74291  -0.03475  -0.43169
H     0.20272   4.44825   1.54131
H    -0.32262   3.65250   3.07010
H     1.41983   3.66902   2.60877
