21
Generated by autodE on: 2022-05-25. E = -761.380864 Ha
C     4.28062   0.58919  -0.20996
O     2.86622   0.82529  -0.11556
C     2.07769  -0.24516  -0.12567
O     2.47751  -1.38939  -0.20844
C     0.64146   0.10659  -0.02601
C    -0.35745  -0.79648  -0.01463
F    -0.31561  -2.09805  -0.07565
C    -1.68824  -0.05471   0.08654
C    -2.40763  -0.43032   1.31688
N    -2.95670  -0.71823   2.29482
C    -2.53047  -0.32309  -1.09266
N    -3.17846  -0.52438  -2.03091
N    -1.31920   1.37136   0.13451
C    -0.02481   1.43486   0.07357
C     0.69335   2.73306   0.10788
H     4.51817   0.07496  -1.15203
H     4.75070   1.57842  -0.18462
H     4.62201  -0.02057   0.63850
H    -0.02401   3.55904   0.18928
H     1.38870   2.75353   0.96082
H     1.30207   2.85100  -0.80130
