21
Generated by autodE on: 2022-05-25. E = -761.246759 Ha. Imaginary frequency = -343.0 cm-1
C     4.17707   0.68953   0.43141
O     2.86192   0.15598   0.63726
C     2.18763  -0.21319  -0.47061
O     2.65167  -0.10697  -1.59675
C     0.88298  -0.70486  -0.16572
C    -0.20072  -1.26549   0.04802
F    -0.86345  -2.37413   0.24650
C    -1.85398   0.08185   0.18082
C    -2.33907  -0.13795   1.51299
N    -2.69994  -0.35978   2.59611
C    -2.70696  -0.34029  -0.89272
N    -3.36663  -0.72732  -1.76889
N    -1.13557   1.23115  -0.02481
C    -0.09852   1.74420  -0.21835
C     0.93402   2.71761  -0.44650
H     4.13602   1.59721  -0.18826
H     4.56174   0.93186   1.42905
H     4.82696  -0.05315  -0.05391
H     0.49540   3.72602  -0.51354
H     1.65246   2.66436   0.38676
H     1.45967   2.46229  -1.38020
