16
Generated by autodE on: 2022-06-16. E = -529.530922 Ha
C     3.00219   1.14763  -0.51464
O     1.93154   0.23341  -0.23485
C     0.69257   0.74412  -0.21237
O     0.43776   1.91610  -0.41257
C    -0.30956  -0.28763   0.08353
N     0.13406  -1.52279   0.27471
N     0.45114  -2.58666   0.44638
C    -1.77436  -0.14210   0.20424
C    -2.36204   1.22606   0.00675
O    -2.46431  -1.12379   0.45928
H     3.04266   1.93786   0.24883
H     3.92013   0.54944  -0.49022
H     2.87067   1.60182  -1.50726
H    -3.44972   1.15918   0.13828
H    -1.93349   1.93832   0.72738
H    -2.12295   1.60685  -0.99750
