60
Generated by autodE on: 2022-07-01. E = -6544.975371 Ha
C     4.86778   7.84560  20.03677
N     4.94621   8.09422  18.60488
C     3.92971   8.27534  17.74806
O     4.10574   8.39609  16.52943
C     2.50857   8.45566  18.34148
C     1.47138   7.58354  17.65254
C     0.69702   8.33976  16.83605
C    -0.39203   7.90724  15.86906
Br   -1.20271   9.46344  14.87851
Br   -2.01673   7.22146  16.87022
C     0.04108   6.92704  14.75929
C     1.14690   5.91177  15.04367
C     0.83231   4.74417  15.97281
C     0.53258   5.08768  17.43093
C     1.47935   6.11351  18.11705
C     2.84147   5.58380  17.90705
N     3.87698   5.10342  17.70395
C     1.14787   6.11248  19.62916
C     0.03111   6.83219  20.07547
C    -0.31848   6.83033  21.42721
C     0.44357   6.10746  22.35028
C     1.55322   5.38304  21.90864
C     1.90439   5.38478  20.55485
C     1.17945   9.80442  16.90188
C     0.08768  10.85868  17.26758
C    -0.91459  10.44642  18.31242
O     0.13447  11.98777  16.82332
C     1.93911  10.12833  15.59178
O     1.99579   9.38387  14.63605
O     2.57717  11.29043  15.64672
C     3.42990  11.61041  14.53593
N     2.03151   9.80030  18.09085
C     2.90717  10.90521  18.42648
H     4.29041   6.93748  20.26549
H     5.88880   7.70469  20.41192
H     4.42245   8.69492  20.57542
H     5.85802   8.00580  18.16212
H     2.52431   8.25896  19.42131
H     0.42472   7.57092  13.95882
H    -0.85958   6.43056  14.37003
H     1.40834   5.49079  14.05961
H     2.05163   6.44413  15.37644
H     1.69047   4.05385  15.94075
H    -0.02965   4.18009  15.57921
H     0.60010   4.16919  18.03175
H    -0.48734   5.45603  17.55745
H    -0.57097   7.39988  19.36653
H    -1.19022   7.39957  21.75777
H     0.17333   6.10922  23.40863
H     2.15587   4.81265  22.61909
H     2.77462   4.81419  20.22694
H    -1.20484  11.33076  18.89600
H    -0.52955   9.66093  18.97205
H    -1.81364  10.06153  17.80666
H     4.21534  10.84780  14.43504
H     3.87174  12.58618  14.76713
H     2.84564  11.66416  13.60668
H     2.37192  11.85780  18.32064
H     3.20535  10.79986  19.48135
H     3.82238  10.95948  17.81026
