29
Generated by autodE on: 2022-07-27. E = -762.140793 Ha
C     3.18941  -1.66493   0.68651
N     2.17938  -2.00639  -0.30385
C     0.87410  -1.71061  -0.23482
O     0.06280  -1.92062  -1.13937
C     0.40568  -1.19465   1.09933
N    -0.48142  -0.26614   1.24698
C    -0.96354   0.03769   2.61083
C    -0.93065   0.58378   0.18842
C    -2.35032   0.71875   0.01182
C    -2.88590   1.65837  -1.04898
O    -3.16929   0.06802   0.69428
C     0.06407   1.20174  -0.65549
O    -0.15159   1.87690  -1.65885
O     1.33895   1.00245  -0.21926
C     2.38907   1.48479  -1.05567
H     4.15210  -1.53793   0.17496
H     2.94572  -0.71727   1.18396
H     3.30285  -2.45254   1.44886
H     2.48342  -2.42358  -1.18121
H     0.77272  -1.68583   2.00383
H    -0.59302   1.03446   2.88531
H    -2.05674   0.03710   2.59287
H    -0.59060  -0.71977   3.30885
H    -2.45089   2.66434  -0.96947
H    -3.97734   1.70697  -0.93303
H    -2.64399   1.28697  -2.05624
H     2.33530   1.02752  -2.05497
H     3.32604   1.19657  -0.56389
H     2.34158   2.57908  -1.15792
