31
Generated by autodE on: 2022-07-01. E = -5782.751202 Ha
N    -2.84706  -2.91639   2.02936
C    -2.08634  -2.04492   1.94493
C    -1.09350  -0.95928   1.85088
C    -1.51448   0.20975   2.76066
C    -1.97203  -0.06579   4.05716
C    -2.29989   0.97753   4.92444
C    -2.17222   2.30633   4.50570
C    -1.71652   2.58290   3.21486
C    -1.38911   1.53907   2.34320
C    -0.90440  -0.56086   0.45528
C    -0.30826  -0.22241  -0.54328
C     0.83642   0.09207  -1.35077
Br    0.51879   1.71772  -2.45399
Br    1.19519  -1.43136  -2.59231
C     2.04447   0.32156  -0.42477
C     2.26997  -0.75542   0.65661
C     1.51941  -0.61753   2.01032
C     0.31494  -1.53660   2.28621
H    -2.07526  -1.10052   4.39227
H    -2.65803   0.75050   5.93114
H    -2.43005   3.12282   5.18402
H    -1.61528   3.61688   2.87738
H    -1.03643   1.76468   1.33622
H     1.88670   1.29759   0.06131
H     2.93692   0.41765  -1.05996
H     2.10231  -1.75715   0.22821
H     3.34608  -0.71115   0.88142
H     2.24856  -0.85508   2.79934
H     1.23999   0.43470   2.18355
H     0.45201  -2.50147   1.77487
H     0.23891  -1.74358   3.36347
