54
Generated by autodE on: 2022-06-04. E = -1322.983821 Ha
C    -3.31134   3.44671   0.81274
O    -2.68844   2.44543  -0.00833
C    -1.37890   2.27601   0.12631
O    -0.67206   2.99492   0.79532
C    -0.87081   1.07560  -0.70168
C    -1.32835   1.29604  -2.14272
O     0.54693   1.09336  -0.69352
C     1.09028   0.38044   0.40721
C     1.26387   1.37922   1.59961
C     2.17046   2.54960   1.32699
O     0.77348   1.17856   2.69051
C     2.49352  -0.09587   0.06062
C     3.03446   0.09175  -1.21499
C     4.32619  -0.36073  -1.50339
C     5.08659  -0.99787  -0.52003
C     4.55095  -1.17859   0.76016
C     3.26328  -0.72681   1.05071
C     0.07174  -0.80302   0.65126
C    -0.01120  -1.21589   2.05256
N    -0.02100  -1.74857   3.08503
C     0.43292  -2.09525  -0.19129
C    -0.52011  -3.24754   0.16966
C    -1.87879  -2.76114  -0.40090
C    -1.51419  -1.43214  -1.11121
C    -0.08286  -1.73276  -1.58902
C    -1.28377  -0.32158  -0.04834
C    -2.48276  -0.10089   0.88683
C    -3.86813  -0.21767   0.30935
O    -2.30459   0.21178   2.05110
H    -3.15654   3.20466   1.87386
H    -4.37792   3.41625   0.56472
H    -2.89258   4.43781   0.59070
H    -2.42007   1.22909  -2.21515
H    -0.87338   0.56096  -2.81461
H    -1.01760   2.29989  -2.46760
H     1.85643   3.40106   1.94382
H     3.19238   2.26292   1.62429
H     2.18633   2.82412   0.26589
H     2.44479   0.59133  -1.98257
H     4.73827  -0.21163  -2.50418
H     6.09545  -1.34998  -0.74733
H     5.13869  -1.67268   1.53708
H     2.85415  -0.87381   2.05296
H     1.49109  -2.35502  -0.10069
H    -0.17303  -4.15580  -0.34316
H    -0.55403  -3.46980   1.24278
H    -2.28915  -3.46861  -1.13524
H    -2.63366  -2.64050   0.38602
H    -2.23450  -1.13887  -1.88112
H    -0.04455  -2.59454  -2.27098
H     0.43516  -0.89109  -2.05705
H    -4.19138  -1.26966   0.34880
H    -4.55976   0.38028   0.91659
H    -3.90217   0.10060  -0.74006
