23
Generated by autodE on: 2022-06-04. E = -517.871708 Ha
C    -2.49479  -1.37526   1.01056
C    -1.84585  -0.18332   0.36866
O    -2.42978   0.88606   0.22849
C    -0.44967  -0.34641  -0.10113
C     0.37385   0.66083  -0.50400
C     0.08860   2.04835  -0.56313
N    -0.06632   3.20042  -0.64568
C     1.76004   0.06841  -0.71790
C     2.28580  -0.26648   0.71666
C     1.35017  -1.41973   1.17216
C     0.39613  -1.60461  -0.05572
C     1.36966  -1.33592  -1.22273
H    -2.55606  -2.20104   0.28252
H    -1.87741  -1.73742   1.84875
H    -3.50025  -1.11486   1.36480
H     2.43844   0.67334  -1.32973
H     2.24859   0.61042   1.37757
H     3.33215  -0.59759   0.64978
H     1.91066  -2.35012   1.34289
H     0.79125  -1.18699   2.08909
H    -0.15875  -2.54867  -0.06351
H     0.87226  -1.31825  -2.20331
H     2.21997  -2.03311  -1.24560
