31
Generated by autodE on: 2022-07-27. E = -805.024026 Ha
C    -4.49752   1.35875   0.71304
O    -3.42306   1.53424  -0.21683
C    -2.24766   0.96047   0.10880
O    -2.08764   0.31630   1.14388
C    -1.27578   1.12530  -0.95089
C    -1.60408   1.69533  -2.28511
O    -0.10064   0.51860  -0.88411
C     0.59959   0.05397   0.14140
C     0.50374   0.66070   1.48143
C     0.16595   2.12846   1.59642
O     0.85430   0.03201   2.47864
C     1.57396  -0.96025  -0.23119
C     1.45110  -1.61648  -1.47994
C     2.38174  -2.57247  -1.87843
C     3.45110  -2.91090  -1.04140
C     3.58127  -2.27552   0.19900
C     2.66109  -1.31162   0.60413
H    -5.34139   1.93109   0.31026
H    -4.76933   0.29611   0.79775
H    -4.21829   1.74158   1.70577
H    -1.65703   2.79779  -2.24658
H    -0.82191   1.41690  -3.00498
H    -2.58071   1.33795  -2.64687
H    -0.01459   2.63351   0.63811
H     1.01747   2.60697   2.10520
H    -0.72066   2.25176   2.23562
H     0.60790  -1.37874  -2.12924
H     2.26465  -3.06758  -2.84525
H     4.17541  -3.66739  -1.35157
H     4.41528  -2.52906   0.85757
H     2.78555  -0.82139   1.56739
