34
Generated by autodE on: 2022-07-03. E = -1006.169210 Ha
C     2.67853  -0.86894   3.49868
N     1.81997  -0.51885   2.38669
C     2.20791  -0.58753   1.10110
O     3.33461  -0.96438   0.73432
C     1.17530  -0.21688   0.09236
O     0.01456   0.05262   0.60783
C    -1.17646   0.24950   0.06792
C    -1.51008  -0.39491  -1.22159
O    -0.77183  -1.27732  -1.68616
N    -2.66631  -0.02002  -1.79886
C    -3.18315  -0.71405  -2.96063
C    -2.16496   0.76926   1.00927
O    -3.32655   1.02150   0.70526
O    -1.66732   0.98436   2.23377
C    -2.57318   1.51608   3.21057
C     1.49336   0.18168  -1.30777
O     0.80113   1.03814  -1.87306
N     2.58893  -0.37762  -1.84295
C     3.09936   0.05140  -3.12858
H     2.81778  -0.00778   4.17055
H     2.24489  -1.69658   4.08177
H     3.65570  -1.18012   3.11252
H     0.87485  -0.20288   2.58454
H    -3.28310   0.57351  -1.24524
H    -3.57626  -1.71353  -2.70656
H    -3.99355  -0.11951  -3.40053
H    -2.38764  -0.84311  -3.70794
H    -1.98703   1.63505   4.12889
H    -2.96668   2.48868   2.88151
H    -3.40904   0.82201   3.38061
H     3.18357  -0.89818  -1.19375
H     3.83095  -0.68327  -3.48705
H     2.27692   0.12366  -3.85396
H     3.58898   1.03860  -3.06931
