33
Generated by autodE on: 2022-07-03. E = -1306.785673 Ha
C     0.60495  -3.61331  -3.11355
O     1.11719  -2.45225  -2.43033
C     0.72431  -1.27076  -2.87718
O    -0.02037  -1.08209  -3.80641
C     1.35562  -0.12470  -2.02821
C     2.81656  -0.20104  -2.18531
N     3.96632  -0.23691  -2.32996
C     0.93766  -0.28589  -0.63333
C     0.26513  -0.11077   0.35503
C    -0.70855   0.49668   1.25678
C    -1.65493  -0.58993   1.82409
F    -1.00871  -1.46362   2.60757
F    -2.64865  -0.05383   2.54265
F    -2.20843  -1.28703   0.82215
C     0.03124   1.21973   2.41079
F     0.82426   0.38586   3.09621
F    -0.82763   1.76977   3.27903
F     0.80632   2.20274   1.93331
C    -1.54807   1.51856   0.40911
C    -0.79864   2.29931  -0.68824
C    -0.60747   1.60848  -2.06796
C     0.83420   1.27398  -2.49843
H    -0.49101  -3.63902  -3.03818
H     1.04598  -4.47712  -2.60471
H     0.90679  -3.59165  -4.16981
H    -2.01308   2.22007   1.11615
H    -2.36628   0.95297  -0.05788
H     0.16790   2.65856  -0.30751
H    -1.40170   3.20469  -0.85312
H    -0.99223   2.29378  -2.83786
H    -1.23880   0.70902  -2.13801
H     1.52723   2.03199  -2.10545
H     0.92040   1.28408  -3.59365
