67
Generated by autodE on: 2022-07-03. E = -2312.954868 Ha. Imaginary frequency = -217.6 cm-1
C    18.65011   1.92441   7.88368
N    18.19286   0.54964   7.84975
C    18.68742  -0.31140   6.95144
O    19.45574   0.01005   6.03860
C    18.22219  -1.74207   7.11285
C    17.79194  -2.33573   8.42120
O    17.81917  -1.67117   9.46848
N    17.40599  -3.62002   8.37901
C    17.02242  -4.32901   9.58388
O    17.78085  -2.43725   6.10366
C    17.96543  -2.40400   4.80427
C    17.43055  -3.64636   4.16460
O    17.03061  -4.58363   4.86312
N    17.40071  -3.63738   2.81766
C    17.09718  -4.82538   2.04754
C    17.93642  -1.10593   4.07227
O    18.45626  -0.91273   2.99079
O    17.13894  -0.23394   4.68645
C    17.07275   1.09090   4.13401
C    20.53657  -3.06270   5.64985
C    20.43931  -2.68583   6.82022
C    21.11506  -2.54141   8.13883
C    20.86347  -1.25797   8.81305
N    20.79837  -0.23086   9.34336
C    20.71587  -3.69448   9.09136
O    20.49162  -3.54529  10.27002
O    20.71291  -4.84618   8.44559
C    20.43323  -6.03790   9.20266
C    22.67749  -2.60200   7.91979
C    23.14301  -1.72955   6.74061
C    23.61527  -2.51511   5.50239
C    22.85333  -3.78239   5.10529
C    21.37960  -3.66579   4.59038
C    20.91638  -5.12189   4.30644
F    19.64434  -5.20943   3.90793
F    21.67082  -5.68658   3.35039
F    21.02868  -5.87071   5.41301
C    21.35042  -2.82564   3.28814
F    20.26319  -3.06262   2.54224
F    22.41232  -3.08474   2.51094
F    21.37540  -1.51825   3.57935
H    19.71814   1.98142   8.15047
H    18.06501   2.47424   8.63071
H    18.51124   2.39771   6.90099
H    17.77840   0.13353   8.68594
H    17.40113  -4.10121   7.48352
H    16.85362  -5.38263   9.33310
H    16.09809  -3.91271  10.01597
H    17.81527  -4.26004  10.34352
H    17.87586  -2.87163   2.34624
H    17.99539  -5.44756   1.89417
H    16.70076  -4.53415   1.06569
H    16.34436  -5.42584   2.57344
H    18.07839   1.53110   4.09497
H    16.43013   1.66428   4.81113
H    16.63835   1.06150   3.12490
H    19.41562  -5.99331   9.61256
H    20.52265  -6.86459   8.48952
H    21.16251  -6.14806  10.01699
H    23.14219  -2.29166   8.86568
H    22.93964  -3.65666   7.76902
H    23.98352  -1.10301   7.07316
H    22.34509  -1.02656   6.45813
H    24.64266  -2.86519   5.69457
H    23.69235  -1.82452   4.64910
H    22.82123  -4.47336   5.95580
H    23.42380  -4.29081   4.31671
