43
Generated by autodE on: 2022-06-23. E = -1199.206296 Ha
C     4.10610  -1.21774   1.38717
O     2.75092  -0.82980   1.10055
C     2.34747  -0.94411  -0.16048
O     3.03225  -1.36462  -1.06588
C     0.91125  -0.48807  -0.29974
C     0.29011  -0.55481  -1.69972
O     0.77837  -0.52355  -2.79668
O    -1.04507  -0.61043  -1.47201
C    -1.21525  -0.58084  -0.00952
C    -2.57261  -1.19077   0.35742
C    -3.50839  -1.53212  -0.75366
O    -2.81948  -1.36368   1.53398
N    -0.04880  -1.26531   0.50312
C    -0.00010  -2.72068   0.33285
C    -0.96905   0.90239   0.44281
C    -1.34264   1.05443   1.94573
N    -0.56515   0.39772   2.82528
O    -2.28071   1.77096   2.29372
C    -1.78930   1.90226  -0.39950
C    -1.09468   2.37190  -1.64322
C     0.24242   2.46249  -1.67946
N     1.04996   2.06555  -0.60947
C     2.49053   2.11131  -0.81751
C     0.58866   0.98465   0.22706
H     4.25922  -2.27604   1.13391
H     4.24274  -1.05631   2.46196
H     4.80472  -0.59365   0.81229
H    -3.03875  -2.28639  -1.40570
H    -4.44973  -1.91488  -0.34059
H    -3.69003  -0.64416  -1.37972
H    -0.80379  -3.17397   0.92735
H     0.95575  -3.09176   0.72674
H    -0.10203  -3.04540  -0.71785
H     0.02945  -0.35476   2.48532
H    -0.85935   0.38729   3.79754
H    -2.00550   2.76749   0.24636
H    -2.77086   1.46333  -0.63267
H    -1.68827   2.70064  -2.49718
H     0.77654   2.86954  -2.54143
H     2.84146   1.36582  -1.55380
H     3.00816   1.93060   0.13542
H     2.78222   3.10763  -1.17865
H     1.09990   1.05733   1.19157
