20
Generated by autodE on: 2022-06-23. E = -457.715329 Ha
C    -3.05030   0.87314  -0.15297
N    -1.82795   0.09171  -0.06011
C    -1.89754  -1.25898   0.30370
C    -0.80518  -2.01414   0.50030
C     0.60037  -1.48634   0.34939
C     0.57656  -0.00886  -0.00723
C     1.82196   0.75490  -0.18630
N     2.97563   0.05896  -0.02645
O     1.84955   1.97091  -0.46520
C    -0.59659   0.66304  -0.17925
H    -3.51519   1.01840   0.83714
H    -3.77973   0.37085  -0.80668
H    -2.82047   1.85770  -0.57951
H    -2.90946  -1.65329   0.41309
H    -0.94101  -3.06232   0.77637
H     1.14587  -2.07106  -0.42003
H     1.17333  -1.65889   1.28327
H     2.99325  -0.93063   0.18454
H     3.85717   0.54534  -0.14712
H    -0.58347   1.72424  -0.43297
