23
Generated by autodE on: 2022-06-23. E = -741.491377 Ha
C     4.30515   0.32078  -0.00045
O     2.90961   0.62350   0.11747
C     2.05471  -0.37470  -0.15594
O     2.42934  -1.48951  -0.49179
C     0.67698   0.06140   0.00299
C     0.22609   1.35842   0.39733
O     0.74169   2.41290   0.69793
O    -1.19593   1.24098   0.39415
C    -1.53317   0.00267   0.03449
C    -2.95196  -0.39963  -0.05238
C    -3.95189   0.66558   0.28181
O    -3.25038  -1.53921  -0.38023
N    -0.45147  -0.72385  -0.20551
C    -0.47258  -2.13372  -0.62206
H     4.58782  -0.48473   0.69294
H     4.55140   0.01859  -1.02889
H     4.83439   1.24525   0.25840
H    -3.77961   1.04022   1.30360
H    -3.83290   1.52272  -0.40065
H    -4.96396   0.25191   0.19499
H     0.56006  -2.46033  -0.74871
H    -0.97596  -2.72640   0.15034
H    -1.02783  -2.22022  -1.56278
