43
Generated by autodE on: 2022-06-23. E = -1199.183953 Ha. Imaginary frequency = -352.8 cm-1
C     4.58743  -1.09937  -0.24142
O     3.24010  -1.23559  -0.70109
C     2.28971  -1.36584   0.25056
O     2.56683  -1.46665   1.44763
C     0.95777  -1.31643  -0.28006
C     0.54114  -0.83324  -1.55261
O     1.09300  -0.58548  -2.61179
O    -0.83542  -0.56842  -1.41253
C    -1.15211  -0.67128  -0.06106
C    -2.61656  -0.98469   0.19548
C    -3.49235  -1.16499  -1.00324
O    -3.00866  -1.08116   1.34259
N    -0.18534  -1.45450   0.53036
C    -0.37960  -2.51812   1.50892
C    -0.87723   1.14953   0.53867
C    -1.06051   1.06504   2.03942
N    -0.09231   0.45382   2.75440
O    -2.05706   1.55988   2.57507
C    -1.94590   2.02114  -0.13436
C    -1.53031   2.47677  -1.50340
C    -0.24733   2.50192  -1.87831
N     0.77369   2.07250  -0.99805
C     2.16362   2.27471  -1.40518
C     0.47660   1.43565   0.13005
H     5.20160  -0.97125  -1.14090
H     4.69069  -0.21968   0.41166
H     4.90896  -1.99657   0.30786
H    -3.15183  -2.05149  -1.56401
H    -4.53309  -1.29711  -0.68231
H    -3.39890  -0.30620  -1.68482
H    -1.11939  -2.21229   2.25371
H     0.57649  -2.69971   2.01252
H    -0.71270  -3.45043   1.02175
H    -0.25514   0.32108   3.74792
H     0.66458  -0.07230   2.33038
H    -2.14567   2.90428   0.50018
H    -2.91125   1.49693  -0.17772
H    -2.29295   2.84158  -2.19387
H     0.10405   2.85535  -2.84709
H     2.34637   1.75177  -2.35335
H     2.83170   1.87071  -0.63587
H     2.36127   3.34827  -1.53888
H     1.32361   1.20339   0.77247
