20
Generated by autodE on: 2022-06-19. E = -457.715320 Ha
C    -2.96639   0.98836  -0.57638
N    -1.79357   0.16745  -0.32408
C    -1.94541  -1.21246  -0.13980
C    -0.91473  -2.02334   0.14698
C     0.50324  -1.53150   0.30152
C     0.56890  -0.02721   0.09191
C     1.84341   0.70230   0.18636
N     2.93651  -0.04552   0.48117
O     1.94703   1.93362   0.01109
C    -0.54709   0.70147  -0.19407
H    -2.65282   2.02382  -0.75825
H    -3.65614   0.97647   0.28402
H    -3.51289   0.62747  -1.46205
H    -2.96718  -1.58027  -0.24954
H    -1.11256  -3.09038   0.27211
H     0.89521  -1.81024   1.30122
H     1.16908  -2.05950  -0.41180
H     2.89038  -1.04501   0.63189
H     3.83611   0.41630   0.55683
H    -0.47103   1.78064  -0.33695
