17
Generated by autodE on: 2022-07-27. E = -550.532985 Ha
C     3.64207   0.74650  -0.18055
O     2.22596   0.65938   0.01759
C     1.60931  -0.37717  -0.57084
O     2.18765  -1.21827  -1.24452
N     0.24304  -0.47838  -0.38639
O    -0.16484   0.56129   0.37668
C    -1.36181   0.77123   0.75226
C    -2.55244  -0.06969   0.45287
C    -3.82393   0.43960   1.06519
O    -2.47778  -1.07991  -0.22726
H     4.14546  -0.14903   0.21250
H     3.96952   1.63512   0.37219
H     3.87926   0.85769  -1.24886
H    -1.45191   1.67562   1.36047
H    -3.71995   0.47906   2.16264
H    -4.01981   1.47034   0.72551
H    -4.65866  -0.21623   0.78875
