23
Generated by autodE on: 2022-10-23. E = -351.521383 Ha
C     3.23357   0.73204  -1.81879
C     2.43434   0.29524  -0.82068
C     3.00834  -0.31838   0.43082
C     0.98266   0.41271  -0.94331
C     0.07569   0.00928  -0.01841
C    -1.35607   0.14746  -0.19060
C    -2.32382  -0.23420   0.68090
C    -3.77598  -0.02104   0.35910
C    -2.06110  -0.88321   2.01021
H     2.81395   1.17686  -2.72639
H     4.32252   0.65570  -1.75343
H     2.70643   0.24968   1.32645
H     4.10648  -0.34593   0.39331
H     2.64063  -1.34816   0.57332
H     0.61557   0.86766  -1.87121
H     0.43371  -0.44540   0.90922
H    -1.67741   0.61153  -1.13096
H    -3.91911   0.45651  -0.62133
H    -4.25894   0.60827   1.12826
H    -4.32317  -0.98093   0.36371
H    -2.48581  -0.27013   2.82483
H    -2.57222  -1.86055   2.06555
H    -0.99586  -1.04215   2.22177
