26
Generated by autodE on: 2022-10-23. E = -665.521876 Ha
C     4.30610   0.82231  -0.10483
C     2.82212   0.63352  -0.28760
O     2.11637   1.55379  -0.73009
N     2.39258  -0.62207   0.03532
N     1.07685  -0.86733  -0.09068
C     0.79185  -2.16173  -0.72820
C     0.10998  -0.07538   0.35122
C     0.46089   0.97521   1.25469
N     0.65648   1.80743   2.04316
C    -1.32019  -0.23806   0.04169
C    -2.27337  -0.05139   1.06155
C    -3.63241  -0.17738   0.78062
C    -4.05629  -0.46962  -0.52023
C    -3.11543  -0.62988  -1.54301
C    -1.75375  -0.51325  -1.26961
H     4.80772  -0.10244   0.20595
H     4.46722   1.60242   0.65712
H     4.74441   1.19085  -1.04536
H     0.90306  -2.06128  -1.81626
H     1.54839  -2.86051  -0.35360
H    -0.21383  -2.50863  -0.47395
H    -1.94427   0.18001   2.07647
H    -4.36416  -0.04520   1.58022
H    -5.12228  -0.56252  -0.73958
H    -3.44395  -0.83728  -2.56352
H    -1.02839  -0.60910  -2.07800
