35
Generated by autodE on: 2022-06-17. E = -857.870411 Ha
C     2.91327  -1.89351   0.54503
N     2.02865  -1.06842  -0.25841
C     1.95084  -1.32938  -1.62257
C     1.29507  -0.49527  -2.44547
C     0.77318   0.79330  -1.87809
C     0.19339   0.67739  -0.44007
C     0.29070   2.03020   0.29433
N    -0.01869   3.12005  -0.42837
O     0.59503   2.10590   1.48781
C     0.87798  -0.46315   0.39107
C    -0.32668  -1.41860   0.64748
C    -0.09402  -2.81249   1.14527
N    -1.12525  -1.27359  -0.53248
C    -1.31820   0.18240  -0.42902
C    -2.29459   0.79335  -1.40130
C    -1.75192   0.30742   1.04479
O    -2.49271   1.11305   1.56136
O    -1.13268  -0.67888   1.70743
H     3.94442  -1.82379   0.16396
H     2.91303  -1.53012   1.58196
H     2.63347  -2.96247   0.55835
H     2.44938  -2.23981  -1.97115
H     1.19737  -0.71022  -3.51021
H     1.61575   1.50639  -1.81701
H     0.03761   1.25590  -2.55017
H    -0.28044   3.06952  -1.40577
H    -0.00876   4.02843   0.02599
H     1.20541  -0.07000   1.35830
H     0.43668  -3.39626   0.38175
H     0.50211  -2.80247   2.06714
H    -1.05983  -3.29794   1.35059
H    -2.01879  -1.76351  -0.43146
H    -2.37877   1.87579  -1.23408
H    -3.29112   0.35047  -1.25385
H    -1.98721   0.61403  -2.43983
