20
Generated by autodE on: 2022-06-17. E = -457.715336 Ha
C    -2.87149  -1.32399   0.32282
N    -1.78822  -0.38332   0.08853
C    -2.07503   0.87823  -0.44792
C    -1.11904   1.76744  -0.75969
C     0.35265   1.49825  -0.56449
C     0.56769   0.10149  -0.00438
C     1.91971  -0.41395   0.26471
N     2.94518   0.42819  -0.01937
O     2.14447  -1.55133   0.72677
C    -0.48178  -0.72256   0.27392
H    -3.34287  -1.63927  -0.62337
H    -2.47711  -2.21312   0.83030
H    -3.64675  -0.87196   0.96094
H    -3.13707   1.08507  -0.59179
H    -1.42190   2.73379  -1.16935
H     0.89309   1.62779  -1.52450
H     0.79386   2.26537   0.10484
H     2.80342   1.35518  -0.39960
H     3.89415   0.11055   0.14448
H    -0.29997  -1.72114   0.67431
