26
Generated by autodE on: 2022-06-27. E = -689.460846 Ha
C     2.35569   2.20249  -0.42264
O     1.67570   1.54145   0.64941
C     0.67757   0.68335   0.28594
C     0.78419  -0.67114   0.39577
O     1.81995  -1.40576   0.80037
C     3.08896  -0.83515   1.13667
C    -0.39317  -1.54456   0.05100
O    -0.28111  -2.75727   0.16627
C    -1.65175  -0.92030  -0.43198
C    -2.78759  -1.82945  -0.78689
C    -1.74406   0.42807  -0.54362
C    -2.98952   1.10061  -1.02785
C    -0.59121   1.29806  -0.16072
O    -0.68841   2.52332  -0.20278
H     3.11631   2.84610   0.03892
H     1.66553   2.82059  -1.01555
H     2.84932   1.46819  -1.08091
H     3.72878  -1.68823   1.39579
H     3.00318  -0.15872   1.99671
H     3.51999  -0.30059   0.27819
H    -3.68264  -1.58710  -0.19074
H    -2.52442  -2.88004  -0.61692
H    -3.07062  -1.70286  -1.84505
H    -3.24861   0.75492  -2.04233
H    -3.84632   0.84574  -0.38216
H    -2.87104   2.19025  -1.04359
