27
Generated by autodE on: 2022-06-27. E = -687.361301 Ha
N    -1.30715  -3.67504   1.12154
C    -1.18871  -2.55801   0.78969
C    -1.07568  -1.21238   0.39238
N     0.16274  -0.73133   0.21171
C     1.21162  -0.24564   0.03646
C     2.48015   0.33341  -0.17589
C     3.64881  -0.38994   0.15360
C     4.89310   0.19479  -0.06478
C     4.98929   1.48616  -0.59690
C     3.82872   2.20021  -0.91851
C     2.57231   1.63590  -0.71735
C    -2.23477  -0.34629   0.17409
C    -2.08100   1.00098  -0.21645
C    -3.19750   1.81226  -0.42203
C    -4.49032   1.30769  -0.24450
C    -4.65162  -0.02765   0.14392
C    -3.54285  -0.84692   0.35123
H     3.56539  -1.39398   0.57180
H     5.79772  -0.36303   0.18637
H     5.97022   1.93688  -0.76131
H     3.90239   3.20749  -1.33374
H     1.66327   2.18367  -0.97004
H    -1.08199   1.41792  -0.36014
H    -3.05286   2.85248  -0.72453
H    -5.36134   1.94635  -0.40655
H    -5.65408  -0.43875   0.28737
H    -3.68682  -1.88677   0.65345
