53
Generated by autodE on: 2022-06-27. E = -1376.833271 Ha. Imaginary frequency = -363.5 cm-1
C    -3.12797  -1.61205   2.02869
O    -2.47700  -0.44321   1.52194
C    -1.24371  -0.67422   0.95260
C    -1.27821  -1.31752  -0.39983
O    -2.33834  -1.35206  -1.02009
C    -0.03313  -1.90075  -0.95066
C    -0.04441  -2.33924  -2.38287
C     1.03602  -2.11477  -0.13787
C     2.25189  -2.83392  -0.62810
C     1.04868  -1.64498   1.27952
O     2.00703  -1.89004   2.02450
C    -0.12793  -0.93016   1.78229
O    -0.07790  -0.67656   3.09746
C    -0.89755   0.32012   3.72072
C     1.41822   1.08105   0.66507
C     1.77301   1.35625   2.01017
N     2.07723   1.54029   3.12088
C     2.44119   0.68484  -0.30077
C     2.13295   0.62648  -1.67576
C     3.09364   0.20467  -2.59111
C     4.37217  -0.16750  -2.15550
C     4.68168  -0.11663  -0.79270
C     3.72803   0.30705   0.13216
N     0.23067   1.55490   0.23203
C    -0.94068   1.23733   0.14365
C    -2.18545   1.81838  -0.30305
C    -2.54756   1.71260  -1.65837
C    -3.76105   2.25197  -2.08442
C    -4.61448   2.87688  -1.16914
C    -4.25490   2.96780   0.18075
C    -3.04508   2.43600   0.62309
H    -3.31887  -2.33915   1.22440
H    -2.52663  -2.09022   2.81914
H    -4.08450  -1.27681   2.45065
H     0.84856  -1.96690  -2.90879
H    -0.02417  -3.43993  -2.46062
H    -0.94190  -1.97799  -2.89974
H     1.98626  -3.84766  -0.97141
H     3.00913  -2.91340   0.15927
H     2.68975  -2.31279  -1.49304
H    -1.90075  -0.06893   3.93883
H    -0.97515   1.22105   3.09685
H    -0.38884   0.57287   4.65926
H     1.13943   0.91568  -2.02181
H     2.84413   0.16559  -3.65369
H     5.12298  -0.49678  -2.87698
H     5.67492  -0.40901  -0.44500
H     3.97684   0.34050   1.19412
H    -1.87551   1.21857  -2.36141
H    -4.04186   2.18129  -3.13735
H    -5.56526   3.29388  -1.50840
H    -4.92239   3.45553   0.89428
H    -2.75706   2.49425   1.67351
