40
Generated by autodE on: 2022-06-02. E = -3687.245533 Ha
C    -4.73427  -0.78106   0.69585
N    -3.57169  -0.06867   0.19982
C    -2.46295   0.04770   0.93262
O    -2.33852  -0.33444   2.09676
C    -1.27520   0.71672   0.25455
O    -0.78427   1.81410   1.05090
C     0.28129   2.13304   0.19692
C     1.08209   3.34988   0.65864
C     1.48078   4.34468  -0.37623
O     1.36604   3.40629   1.83652
O    -0.41415   2.37717  -1.08507
C    -1.42625   1.47999  -1.08513
O    -2.22543   1.34883  -1.97365
C     1.01261   0.78415   0.04420
C     0.01666  -0.11686   0.06102
C     0.04189  -1.60681  -0.03342
F    -1.24684  -2.05457  -0.21562
Br    1.00889  -2.19511  -1.71139
C     0.61518  -2.33234   1.17578
C     2.05685  -2.03615   1.60298
C     2.30851  -0.65851   2.25596
C     3.07413   0.35971   1.40395
C     2.48621   0.59889  -0.00659
H    -5.05952  -0.36922   1.66231
H    -4.51147  -1.85149   0.83605
H    -5.54962  -0.67815  -0.02981
H    -3.54615   0.24262  -0.76957
H     1.97681   3.83043  -1.21564
H     2.14318   5.10051   0.06335
H     0.57566   4.82053  -0.78847
H    -0.07402  -2.07720   1.99904
H     0.49545  -3.40760   0.97428
H     2.31072  -2.82229   2.32931
H     2.73897  -2.19700   0.75189
H     2.88304  -0.80273   3.18420
H     1.34627  -0.21998   2.56792
H     3.10863   1.31581   1.94893
H     4.11734   0.03004   1.26950
H     2.71140  -0.26492  -0.64735
H     2.96544   1.47805  -0.46221
