20
Generated by autodE on: 2022-06-02. E = -2985.019260 Ha
F     1.10863   0.74942  -1.36949
C     0.15463   0.24099  -0.51761
Br   -1.59125   1.04338  -1.11853
C     0.45015   0.59784   0.85221
C     0.87898   0.34332   1.95948
C     1.45292  -0.40653   3.06396
C     2.12345  -1.66232   2.44957
C     1.27247  -2.45027   1.42910
C     1.31558  -2.02332  -0.06665
C     0.09553  -1.28126  -0.65780
H     2.18078   0.18300   3.64322
H     0.64846  -0.70088   3.75936
H     2.39161  -2.32778   3.28562
H     3.07040  -1.35909   1.97284
H     0.22452  -2.49053   1.77489
H     1.63288  -3.48986   1.46966
H     1.41260  -2.94210  -0.66485
H     2.23051  -1.44325  -0.27297
H     0.01224  -1.49079  -1.73552
H    -0.82921  -1.63669  -0.18086
