40
Generated by autodE on: 2022-06-02. E = -3687.156593 Ha. Imaginary frequency = -279.8 cm-1
C    -4.31235  -1.21655   1.10336
N    -3.49644  -0.13495   0.58859
C    -2.40790   0.29860   1.25135
O    -2.12555  -0.00092   2.41740
C    -1.52500   1.17591   0.46395
O    -0.58629   1.89881   1.10776
C     0.14062   2.50310   0.18563
C     1.18089   3.50050   0.56606
C     1.72470   4.33471  -0.54645
O     1.53809   3.54758   1.72823
O    -0.50816   2.53726  -0.97829
C    -1.59116   1.62210  -0.89627
O    -2.31721   1.38960  -1.83462
C     1.38734   0.57897  -0.18423
C     0.44142  -0.19387  -0.38679
C    -0.02054  -1.57492  -0.35764
F    -1.35262  -1.71660  -0.64393
Br    0.94246  -2.56046  -1.85147
C     0.29731  -2.25005   0.97631
C     1.70374  -1.97422   1.53613
C     1.85610  -0.63052   2.29891
C     2.89305   0.37539   1.77222
C     2.77480   0.76369   0.27008
H    -4.47202  -1.08730   2.18154
H    -3.82846  -2.19459   0.93636
H    -5.28441  -1.21140   0.59437
H    -3.56035   0.08299  -0.40403
H     2.07707   3.68692  -1.36505
H     2.54400   4.95946  -0.17083
H     0.92114   4.96769  -0.95818
H    -0.46454  -1.87836   1.68102
H     0.12376  -3.32845   0.84799
H     1.94000  -2.80254   2.22001
H     2.44139  -2.05481   0.72061
H     2.12624  -0.84460   3.34521
H     0.87686  -0.13080   2.35032
H     2.80519   1.28992   2.37791
H     3.91334  -0.01151   1.92652
H     3.38496   0.08327  -0.34765
H     3.17080   1.77411   0.10246
