23
Generated by autodE on: 2022-06-21. E = -351.521382 Ha
C    -0.87361   2.88533  -2.28279
C    -0.82679   2.17093  -1.13681
C    -1.47077   2.67685   0.12867
C    -0.14124   0.88045  -1.10849
C    -0.02706   0.06882  -0.02724
C     0.66451  -1.20387  -0.05487
C     0.81993  -2.07239   0.97623
C     1.57096  -3.36043   0.78977
C     0.28397  -1.85013   2.36202
H    -1.38034   3.85314  -2.33227
H    -0.40498   2.51525  -3.19992
H    -1.95079   3.65258  -0.03126
H    -0.72808   2.78446   0.93668
H    -2.23426   1.97110   0.49603
H     0.31212   0.55804  -2.05367
H    -0.47618   0.38328   0.91878
H     1.10476  -1.48212  -1.02008
H     0.92869  -4.22677   1.03005
H     1.94527  -3.47872  -0.23770
H     2.42951  -3.41644   1.48309
H    -0.37925  -2.68369   2.65319
H    -0.27563  -0.91276   2.47473
H     1.11042  -1.84750   3.09475
