26
Generated by autodE on: 2022-06-21. E = -669.350678 Ha
C     2.98401  -0.63164   0.38142
C     2.51389   0.30829   1.46979
O     3.29310   0.72325   2.34487
C     1.13451   0.70728   1.46532
C     0.65814   1.62203   2.42043
N     0.35025   2.39998   3.23928
O     0.37679   0.20468   0.43795
C    -0.88281   0.21186   0.17028
C    -1.84468   0.84036   1.10199
C    -1.23698  -0.44880  -1.07545
C    -2.58207  -0.53885  -1.49690
C    -2.90431  -1.17882  -2.69182
C    -1.89852  -1.73818  -3.48537
C    -0.55940  -1.65330  -3.07987
C    -0.22755  -1.01534  -1.89148
H     2.86475  -0.16865  -0.61089
H     4.04374  -0.86267   0.55028
H     2.39797  -1.56324   0.37973
H    -1.66804   1.92673   1.15627
H    -2.88123   0.66891   0.80218
H    -1.69148   0.43234   2.11433
H    -3.38331  -0.11126  -0.89532
H    -3.94849  -1.24130  -3.00448
H    -2.15531  -2.23970  -4.42114
H     0.22851  -2.08719  -3.69892
H     0.81470  -0.94816  -1.58232
