49
Generated by autodE on: 2022-06-21. E = -1020.860096 Ha. Imaginary frequency = -321.5 cm-1
C     0.46599   0.36144  -2.81367
C     1.44492   0.66916  -1.93675
C     2.90135   0.52077  -2.29883
C     1.19332   1.15217  -0.58008
C    -0.02913   1.58019  -0.05706
C    -0.03499   2.49564   1.07983
C    -1.02460   3.34461   1.44000
C    -0.87713   4.22631   2.64832
C    -2.32742   3.49072   0.70536
C    -0.86230  -0.34589   0.89459
C    -1.71302   0.17568   2.00683
C    -1.56663  -1.02600  -0.21644
C    -1.37109  -2.40064  -0.43983
C    -2.09718  -3.07012  -1.42641
C    -3.04033  -2.38361  -2.19432
C    -3.27505  -1.02528  -1.94922
C    -2.55520  -0.35542  -0.96278
O     0.30664  -0.81044   1.34209
C     1.45264  -1.06135   0.65609
C     1.52270  -1.88783  -0.48684
N     1.65986  -2.55725  -1.43404
C     2.68028  -0.78279   1.38015
C     2.55369  -0.12951   2.73317
O     3.78307  -1.04329   0.88200
H    -0.59259   0.46151  -2.56829
H     0.71130  -0.00820  -3.81267
H     3.40311   1.50373  -2.28740
H     3.02932   0.07677  -3.29604
H     3.42465  -0.10822  -1.56223
H     2.08840   1.42772  -0.01732
H    -0.88256   1.60841  -0.73208
H     0.87529   2.49005   1.68977
H    -1.67908   4.01864   3.37962
H     0.09215   4.08545   3.14893
H    -0.97949   5.29196   2.37615
H    -3.17338   3.23112   1.36578
H    -2.39549   2.86965  -0.19669
H    -2.48212   4.54288   0.40848
H    -2.21106  -0.67783   2.49971
H    -1.11413   0.71940   2.74685
H    -2.49900   0.83149   1.61326
H    -0.67509  -2.96028   0.18372
H    -1.92806  -4.13722  -1.58678
H    -3.60301  -2.90664  -2.97084
H    -4.02490  -0.48423  -2.53043
H    -2.75451   0.70031  -0.77726
H     3.55683   0.03146   3.14818
H     1.96271  -0.76059   3.41509
H     2.02711   0.83311   2.64843
