56
Generated by autodE on: 2022-06-24. E = -1246.144513 Ha
C     3.59123  -0.02508   1.81396
C     2.47923  -1.01545   1.57514
O     2.51091  -2.12770   2.07173
C     1.30238  -0.54208   0.69202
C     1.83954  -0.39016  -0.73656
C     2.54914  -1.44129  -1.33847
C     3.00436  -1.33240  -2.65488
C     2.76373  -0.16639  -3.38821
C     2.07809   0.89354  -2.78730
C     1.62531   0.78286  -1.46973
N     0.75707   0.71680   1.21982
C    -0.60600   0.54505   1.74744
C    -0.58579   0.14812   3.23776
C    -1.43013   1.82328   1.59570
C    -0.86259   3.02567   1.15712
C    -1.64146   4.18216   1.02952
C    -3.00389   4.15164   1.33482
C    -3.58201   2.95423   1.77264
C    -2.80091   1.80463   1.90451
C    -1.13782  -0.60365   0.85379
C    -1.58449  -0.11807  -0.53650
C    -1.45946  -1.18665  -1.59183
C    -2.09049  -1.04804  -2.90778
N    -2.76902   0.10849  -3.13337
O    -2.03190  -1.92215  -3.79994
C    -0.72355  -2.31314  -1.35795
N    -0.01843  -2.55569  -0.23054
C     0.56225  -3.86073   0.02858
C     0.08169  -1.53512   0.78814
H     4.53648  -0.56385   1.96462
H     3.36937   0.52678   2.74372
H     3.68878   0.70471   0.99954
H     2.75377  -2.35620  -0.78076
H     3.54966  -2.16346  -3.10870
H     3.11609  -0.08170  -4.41901
H     1.89297   1.81386  -3.34696
H     1.09242   1.60546  -0.99384
H     1.36927   1.18353   1.88294
H    -1.60102  -0.02137   3.62524
H    -0.12582   0.95645   3.82762
H     0.00352  -0.76596   3.40065
H     0.19773   3.05256   0.90550
H    -1.17774   5.11018   0.68547
H    -3.61367   5.05248   1.23174
H    -4.64813   2.91513   2.00994
H    -3.26694   0.87577   2.24148
H    -1.96942  -1.12752   1.34452
H    -2.62966   0.22052  -0.46049
H    -1.00616   0.77542  -0.82224
H    -2.80170   0.86191  -2.45895
H    -3.19440   0.25044  -4.04241
H    -0.68174  -3.09567  -2.11847
H     1.56567  -3.75872   0.46247
H    -0.05309  -4.44370   0.73776
H     0.63656  -4.42395  -0.91130
H     0.18032  -2.05555   1.74649
