36
Generated by autodE on: 2022-06-24. E = -788.388424 Ha
C    -2.23643   3.22354   0.42518
C    -0.95201   2.47071   0.16719
O     0.12745   3.11973   0.08660
C    -0.95450   1.04490   0.03876
N     0.33194   0.55735  -0.09964
C     0.87654  -0.59056  -0.44695
C     0.03936  -1.74059  -0.89857
C     2.34297  -0.69823  -0.40892
C     2.95099  -1.97150  -0.38875
C     4.33930  -2.10317  -0.33766
C     5.15683  -0.97017  -0.31666
C     4.56929   0.30069  -0.34583
C     3.18424   0.43794  -0.38885
C    -2.11948   0.16984   0.24800
C    -2.07801  -0.86424   1.20758
C    -3.18981  -1.67475   1.43819
C    -4.37684  -1.46586   0.72674
C    -4.43718  -0.43802  -0.21991
C    -3.32090   0.36578  -0.46122
H    -2.69783   3.52126  -0.53140
H    -1.99477   4.14336   0.97728
H    -2.97740   2.63723   0.98434
H     0.97548   1.34574   0.06874
H    -0.25799  -2.39435  -0.06098
H    -0.88165  -1.38585  -1.37733
H     0.59724  -2.35228  -1.61908
H     2.33303  -2.86991  -0.39371
H     4.78342  -3.10095  -0.31236
H     6.24358  -1.07363  -0.28113
H     5.19685   1.19483  -0.34205
H     2.76757   1.44702  -0.43399
H    -1.16437  -1.02349   1.78445
H    -3.13294  -2.46904   2.18677
H    -5.24799  -2.09922   0.90992
H    -5.35711  -0.26770  -0.78489
H    -3.37042   1.14760  -1.22134
