36
Generated by autodE on: 2022-07-27. E = -788.384030 Ha
C     1.42471  -1.06707   2.53915
C     1.49312  -1.68796   1.15280
O     2.15822  -2.74617   1.03784
C     0.89462  -1.02538   0.03337
N     0.03937   0.06417   0.22443
C    -0.98449   0.21503   1.04886
C    -1.56445  -0.95690   1.75942
C    -1.55326   1.55700   1.19969
C    -0.81957   2.70622   0.82532
C    -1.37937   3.97760   0.93400
C    -2.67440   4.13716   1.43760
C    -3.40269   3.01190   1.83870
C    -2.85020   1.73752   1.72878
C     1.19293  -1.31627  -1.37061
C     2.32727  -2.06119  -1.78132
C     2.59907  -2.27453  -3.13090
C     1.75959  -1.75844  -4.12696
C     0.63371  -1.02509  -3.74440
C     0.34906  -0.81498  -2.39351
H     2.43955  -1.12157   2.96220
H     0.77284  -1.66731   3.19416
H     1.08129  -0.02513   2.56696
H     0.20614   0.85259  -0.40834
H    -2.65802  -0.95509   1.64085
H    -1.35854  -0.92572   2.84085
H    -1.16208  -1.89532   1.35703
H     0.21144   2.61640   0.47773
H    -0.79263   4.85094   0.64098
H    -3.10896   5.13500   1.52989
H    -4.41144   3.12736   2.24120
H    -3.44028   0.87702   2.04302
H     2.99237  -2.46878  -1.02391
H     3.48568  -2.84996  -3.41078
H     1.97826  -1.93199  -5.18314
H    -0.04296  -0.62233  -4.50263
H    -0.56031  -0.27066  -2.13089
