20
Generated by autodE on: 2022-06-24. E = -457.715325 Ha
C    -3.15312  -0.40269  -0.01312
N    -1.82150   0.17652   0.05097
C    -1.67626   1.56910   0.08146
C    -0.47711   2.17246   0.08234
C     0.82734   1.41474   0.05098
C     0.57082  -0.08271  -0.00461
C     1.68151  -1.04683  -0.05872
N     2.93093  -0.51769  -0.03883
O     1.51926  -2.28275  -0.12176
C    -0.69526  -0.58791  -0.00399
H    -3.07721  -1.49499   0.05461
H    -3.65942  -0.14327  -0.95806
H    -3.77473  -0.04282   0.82175
H    -2.61352   2.12789   0.10617
H    -0.44474   3.26403   0.11102
H     1.43749   1.74386  -0.81505
H     1.44176   1.67929   0.93629
H     3.72500  -1.14754  -0.07088
H     3.10418   0.47737   0.02342
H    -0.85182  -1.66690  -0.04595
