31
Generated by autodE on: 2022-06-24. E = -801.204268 Ha
C    -1.56507   2.39693   0.44627
O    -1.09316   1.35958  -0.42074
C    -1.38006   0.09482  -0.06254
O    -2.16146  -0.16028   0.84082
C    -0.69423  -0.89981  -0.89356
C    -1.23357  -2.23426  -1.10213
C    -2.62862  -2.55252  -0.61133
O    -0.57611  -3.12221  -1.66356
N     0.51899  -0.56397  -1.48462
C     0.86004  -1.10283  -2.82377
N     1.41364   0.23287  -1.04196
C     1.44614   0.66849   0.28639
C     1.94734   1.96656   0.49213
C     2.08757   2.46950   1.78439
C     1.77386   1.66807   2.88634
C     1.32028   0.35747   2.68579
C     1.13809  -0.14303   1.39941
H    -2.66387   2.43914   0.43870
H    -1.14915   3.33185   0.05363
H    -1.21244   2.22927   1.47438
H    -3.34701  -1.74994  -0.82742
H    -2.62007  -2.69549   0.47985
H    -2.94735  -3.48821  -1.09002
H     1.48029  -1.99797  -2.70528
H    -0.05281  -1.34593  -3.37284
H     1.43075  -0.31801  -3.33181
H     2.20433   2.57183  -0.37868
H     2.45426   3.48765   1.93156
H     1.89169   2.05662   3.90013
H     1.09843  -0.28106   3.54372
H     0.77959  -1.16276   1.26013
