51
Generated by autodE on: 2022-06-24. E = -1258.887404 Ha. Imaginary frequency = -370.8 cm-1
C     3.99213  -2.41316  -0.19565
O     2.67746  -1.93195   0.10749
C     2.59205  -0.83687   0.87026
O     3.57729  -0.30375   1.34721
C     1.20094  -0.32301   1.01234
C     0.97238   0.75403   2.02261
C    -0.35189   0.82153   2.75399
O     1.86500   1.53136   2.34398
N     0.12219  -1.05671   0.59923
C     0.07416  -2.51168   0.42336
N    -0.86510  -0.25565   0.15262
C    -2.13293  -0.87109  -0.08825
C    -2.42019  -1.54891  -1.28203
C    -3.69616  -2.07430  -1.49935
C    -4.68805  -1.94311  -0.52314
C    -4.39844  -1.28172   0.67500
C    -3.12984  -0.73990   0.88929
C    -0.32298   0.87615  -1.12388
N    -1.10654   2.03694  -0.97487
C    -2.52909   1.99985  -1.26636
C    -0.62778   3.06371  -0.16086
C     0.67907   3.23744   0.08633
C     1.70307   2.34432  -0.55393
C     1.11131   1.02338  -0.99321
C     2.01429   0.17762  -1.78965
N     1.50814  -0.87927  -2.48144
O     3.23142   0.43972  -1.85586
H     4.52717  -2.69085   0.72366
H     4.55819  -1.64264  -0.73664
H     3.84718  -3.29441  -0.83122
H    -0.86560  -0.14495   2.80705
H    -1.01604   1.54321   2.25882
H    -0.13917   1.19287   3.76660
H     0.81203  -2.96725   1.08692
H    -0.92339  -2.85845   0.72127
H     0.26851  -2.81619  -0.61319
H    -1.64616  -1.67376  -2.04019
H    -3.91188  -2.59506  -2.43510
H    -5.68435  -2.35685  -0.69470
H    -5.16758  -1.17627   1.44361
H    -2.90426  -0.20172   1.80986
H    -0.65149   0.29996  -1.99118
H    -3.14523   1.74223  -0.38825
H    -2.72608   1.25593  -2.04902
H    -2.85631   2.98267  -1.63844
H    -1.39392   3.72811   0.24674
H     1.00481   4.05353   0.73282
H     2.15289   2.84590  -1.43646
H     2.55071   2.16898   0.12685
H     0.57024  -1.22951  -2.33403
H     2.18304  -1.53904  -2.85451
