50
Generated by autodE on: 2022-06-25. E = -1424.286614 Ha
C     4.38845  -1.21776   1.55141
N     3.09885  -1.39174   0.90450
C     2.72663  -0.59886  -0.10227
O     3.45201   0.23037  -0.64561
C     1.29284  -0.83146  -0.72363
C     1.44389  -2.02243  -1.57537
N     1.72046  -2.92608  -2.24883
N     0.92761   0.33028  -1.52685
C     0.20715   1.30844  -0.69421
C     0.95017   2.56491  -0.52862
N     1.52565   3.56921  -0.47172
C    -1.18022   1.69156  -1.30339
O    -1.85214   2.56433  -0.75355
N    -1.53008   0.97469  -2.36642
C    -2.84096   1.02650  -2.98019
C     0.04876   0.60637   0.72112
O     1.17891   0.98363   1.44686
C     1.29216   0.68090   2.84504
C    -1.25491   0.98551   1.43704
O    -1.23206   1.85099   2.29224
C    -2.49918   0.28450   1.04439
C    -3.78345   0.84638   1.56038
C    -2.48014  -0.78437   0.19517
C    -3.74836  -1.42462  -0.27426
C    -1.21731  -1.30543  -0.37117
O    -1.20537  -2.09218  -1.30090
C     0.11250  -0.88835   0.30973
O     0.33760  -1.67845   1.44177
C     0.01864  -3.07815   1.38571
H     4.47849  -0.21791   2.00622
H     5.20299  -1.33819   0.82269
H     4.49515  -1.97817   2.33423
H     2.35874  -1.87752   1.40521
H     1.77326   0.72735  -1.94057
H    -0.83894   0.29747  -2.68850
H    -3.22489   0.00430  -3.10635
H    -2.79903   1.51210  -3.96770
H    -3.52016   1.59489  -2.33332
H     0.50291   0.00703   3.19415
H     2.26504   0.19498   3.00124
H     1.25424   1.61934   3.41604
H    -3.60179   1.64940   2.28358
H    -4.37672   1.25124   0.72328
H    -4.39434   0.06177   2.03319
H    -3.54548  -2.25887  -0.95484
H    -4.37744  -0.68427  -0.79509
H    -4.33522  -1.79271   0.58241
H    -1.06834  -3.23736   1.32322
H     0.39062  -3.49991   2.32746
H     0.51676  -3.57487   0.54020
