24
Generated by autodE on: 2022-06-25. E = -734.811368 Ha
C    -4.55247   0.52831   1.53718
N    -3.53210   0.23400   0.54808
C    -2.23013   0.29013   0.85536
O    -1.79794   0.59329   1.97688
C    -1.25707  -0.03673  -0.22564
C    -1.63864  -0.40662  -1.53260
N    -2.01250  -0.71008  -2.59522
N     0.01327   0.04871   0.16393
C     1.20473  -0.12583  -0.40344
C     1.36597  -0.45556  -1.76567
N     1.56000  -0.72172  -2.88516
C     2.34437   0.08286   0.53463
O     2.10173   0.40709   1.70575
N     3.57979  -0.10225   0.04995
C     4.75583   0.07523   0.88152
H    -5.53215   0.50657   1.04610
H    -4.39514   1.52459   1.97839
H    -4.54529  -0.21147   2.35386
H    -3.81808  -0.04424  -0.38604
H     0.09374   0.31891   1.16870
H     3.70272  -0.36889  -0.92251
H     5.64313  -0.20283   0.30055
H     4.70078  -0.56075   1.77812
H     4.85748   1.12196   1.20973
