24
Generated by autodE on: 2022-07-28. E = -734.800415 Ha
C    -3.90066   1.93907  -1.14311
N    -2.45918   2.00428  -1.00386
C    -1.74806   1.11282  -0.28856
O    -2.22419   0.11164   0.25595
C    -0.29594   1.41114  -0.13723
C     0.17170   2.74592  -0.12059
N     0.52085   3.84296  -0.12134
N     0.59720   0.45659   0.14129
C     0.61793  -0.87871   0.14492
C    -0.38532  -1.72865  -0.36197
N    -1.09561  -2.53998  -0.80271
C     1.94293  -1.40378   0.60040
O     2.83000  -0.58092   0.87722
N     2.07954  -2.73332   0.68293
C     3.30059  -3.38415   1.11664
H    -4.26824   1.04856  -0.62083
H    -4.18656   1.87298  -2.20402
H    -4.37665   2.83196  -0.70862
H    -1.97616   2.79292  -1.42482
H     1.54871   0.77638   0.41933
H     1.28098  -3.32101   0.46027
H     3.14548  -3.91489   2.06907
H     3.63715  -4.11153   0.36280
H     4.08000  -2.62659   1.25517
