26
Generated by autodE on: 2022-06-25. E = -689.456660 Ha
C     2.10584   1.49601   2.31439
O     1.72543   0.25081   1.71336
C     0.73204   0.20118   0.80243
C     0.84646  -0.66571  -0.24592
O     1.99697  -1.35366  -0.39580
C     1.98065  -2.70967  -0.86237
C    -0.20766  -0.71822  -1.28897
O    -0.01985  -1.35527  -2.32151
C    -1.47410   0.04303  -1.07903
C    -2.54662  -0.10017  -2.11348
C    -1.60767   0.86810  -0.01198
C    -2.84036   1.68758   0.21120
C    -0.53485   0.94192   1.02289
O    -0.70326   1.57723   2.05979
H     3.17488   1.40275   2.55170
H     1.53919   1.68168   3.23634
H     1.96287   2.33498   1.61736
H     2.86170  -3.19275  -0.41727
H     2.04972  -2.75415  -1.95721
H     1.07362  -3.23501  -0.52800
H    -2.74822   0.86752  -2.60280
H    -2.26234  -0.82784  -2.88259
H    -3.49373  -0.42108  -1.64995
H    -2.74859   2.30522   1.11228
H    -3.03485   2.34239  -0.65374
H    -3.72550   1.03842   0.31925
