50
Generated by autodE on: 2022-06-25. E = -1424.237495 Ha. Imaginary frequency = -370.3 cm-1
C     3.81692  -3.17102  -0.88491
N     2.59397  -2.43898  -1.16062
C     2.54326  -1.10831  -1.03806
O     3.51397  -0.37419  -0.85264
C     1.15470  -0.47742  -1.11906
C     0.21493  -1.17367  -1.95585
N    -0.48946  -1.82824  -2.60922
N     1.24506   0.89671  -1.13015
C     0.25676   1.73937  -0.66879
C     0.71305   2.96446  -0.09748
N     1.07944   3.94538   0.40926
C    -1.10881   1.84703  -1.28970
O    -1.98926   2.48824  -0.71020
N    -1.27523   1.23229  -2.47087
C    -2.56945   1.03412  -3.09113
C     0.06391   0.52896   1.32823
O     1.07221   1.11161   1.99811
C     0.90604   1.95852   3.14696
C    -1.36565   0.87036   1.55265
O    -1.69720   1.82141   2.25026
C    -2.39510   0.01523   0.88536
C    -3.79942   0.53148   0.86178
C    -2.07626  -1.20045   0.36866
C    -3.08738  -2.07126  -0.30907
C    -0.70991  -1.74483   0.55557
O    -0.47003  -2.94286   0.45245
C     0.40534  -0.79338   0.84704
O     1.54396  -1.35984   1.37098
C     1.44041  -1.81494   2.72546
H     4.66342  -2.69146  -1.39358
H     3.70951  -4.19750  -1.25608
H     4.02913  -3.20040   0.19694
H     1.71643  -2.95151  -1.10923
H     2.20468   1.15524  -0.85910
H    -0.46034   0.88404  -2.96366
H    -2.63799   0.00027  -3.46051
H    -2.72611   1.72231  -3.93716
H    -3.35592   1.20634  -2.34680
H     0.32318   1.44393   3.92356
H     1.92701   2.13415   3.50951
H     0.43141   2.91009   2.88874
H    -3.85596   1.55355   1.25109
H    -4.45336  -0.11455   1.47195
H    -4.20183   0.51165  -0.16257
H    -3.91870  -2.31707   0.37215
H    -3.52667  -1.54112  -1.16984
H    -2.63444  -3.00593  -0.65962
H     1.14568  -0.99745   3.40098
H     2.43883  -2.17550   3.00483
H     0.71807  -2.64179   2.80747
