55
Generated by autodE on: 2022-06-13. E = -2303.520536 Ha
C     0.34562  -6.53497 -14.87516
N    -0.25655  -6.19344 -13.60004
C    -1.31671  -5.38024 -13.52759
O    -1.78773  -4.80239 -14.51168
C    -1.87785  -5.06244 -12.11418
C    -1.39967  -5.96061 -10.97158
O    -1.30971  -3.76399 -11.88217
C    -2.31277  -2.81945 -11.59778
C    -2.11490  -2.40171 -10.12809
O    -1.44795  -1.44713  -9.79139
O    -2.69742  -3.24694  -9.28657
C    -2.57726  -2.96376  -7.88398
C    -3.64074  -3.50443 -11.87448
C    -3.40556  -4.80616 -12.16889
C    -4.41886  -5.94495 -12.39518
C    -3.92308  -7.11599 -13.30404
F    -4.78802  -8.14525 -13.22547
F    -2.71979  -7.61710 -12.98875
F    -3.86341  -6.75613 -14.59062
C    -4.77761  -6.58519 -11.00084
F    -3.93224  -7.57722 -10.66183
F    -6.00845  -7.11567 -10.99870
F    -4.73259  -5.68797 -10.01294
C    -5.74047  -5.48236 -13.07338
C    -5.59919  -4.53646 -14.28099
C    -6.22550  -3.16786 -14.03098
C    -5.38048  -2.17871 -13.23698
C    -4.86362  -2.56718 -11.82870
Cl   -6.23471  -3.20718 -10.79560
C    -4.48466  -1.23511 -11.09716
O    -4.68899  -1.00321  -9.92915
O    -3.90313  -0.37812 -11.92666
C    -3.46455   0.87579 -11.36980
H     0.61610  -5.62565 -15.43167
H    -0.34805  -7.12338 -15.49851
H     1.25157  -7.12623 -14.69515
H     0.03384  -6.70349 -12.77352
H    -1.86086  -5.61948 -10.03591
H    -0.31116  -5.84168 -10.86962
H    -1.62936  -7.01950 -11.11688
H    -2.15550  -1.92603 -12.21685
H    -3.01709  -1.98043  -7.66484
H    -1.52146  -2.97706  -7.57908
H    -3.13485  -3.75496  -7.37071
H    -6.36164  -5.01441 -12.30843
H    -6.28583  -6.38674 -13.36618
H    -4.54814  -4.41146 -14.57684
H    -6.10175  -5.00242 -15.14079
H    -6.42336  -2.67895 -14.99839
H    -7.20773  -3.29203 -13.54603
H    -4.48303  -1.91516 -13.81691
H    -5.96213  -1.25280 -13.12150
H    -4.32002   1.41859 -10.94532
H    -2.71050   0.69337 -10.59255
H    -3.02933   1.43409 -12.20565
