23
Generated by autodE on: 2022-06-13. E = -629.272789 Ha
C    -2.65976  -2.53659   0.23457
N    -1.76266  -1.40703   0.11181
C    -2.22545  -0.17065  -0.16595
O    -3.42966   0.07935  -0.33243
C    -1.21572   0.90551  -0.26605
C    -1.54017   2.31249  -0.54697
O     0.00875   0.52928  -0.08555
C     1.12232   1.24772  -0.10886
C     2.35627   0.55676   0.11036
O     3.45562   1.10791   0.10856
O     2.20662  -0.77559   0.32119
C     3.40701  -1.51947   0.54000
H    -3.39932  -2.37553   1.03551
H    -3.21281  -2.71428  -0.70205
H    -2.07225  -3.43151   0.47210
H    -0.76472  -1.54341   0.23503
H    -1.01575   2.65398  -1.45975
H    -1.18771   2.96114   0.27756
H    -2.62108   2.43394  -0.67451
H     1.08011   2.31811  -0.29844
H     3.09640  -2.56080   0.68879
H     3.93894  -1.15679   1.43262
H     4.07781  -1.45052  -0.32984
