23
Generated by autodE on: 2022-07-27. E = -629.254025 Ha
C     1.51899  -2.30752  -3.82812
N     1.15142  -1.99595  -2.46270
C     0.68144  -0.78680  -2.08221
O     0.53696   0.16872  -2.85565
C     0.34036  -0.66723  -0.63182
C     0.51742  -1.76750   0.34635
O    -0.16075   0.49300  -0.38420
C    -0.67395   1.28948   0.54135
C    -0.73147   1.08774   1.95982
O    -0.29483   0.16348   2.64320
O    -1.36626   2.15095   2.52885
C    -1.47008   2.13707   3.95233
H     2.58522  -2.57549  -3.90062
H     1.33205  -1.42789  -4.45449
H     0.92433  -3.15143  -4.21174
H     1.21469  -2.74043  -1.77690
H     1.55525  -2.14028   0.32205
H     0.27719  -1.43325   1.35893
H    -0.13852  -2.61641   0.07994
H    -1.01969   2.22899   0.11474
H    -2.03321   1.25743   4.29998
H    -0.47426   2.13150   4.42199
H    -2.00556   3.05410   4.22753
