32
Generated by autodE on: 2022-06-13. E = -1674.139626 Ha
C    -2.11687   4.69759   1.45908
O    -1.78449   3.80186   0.38340
C    -1.72149   2.51277   0.67724
O    -1.89447   2.04444   1.77970
C    -1.41263   1.66050  -0.56746
Cl   -3.00380   1.61555  -1.50313
C    -0.99383   0.32842  -0.17910
C    -0.21430  -0.56622   0.05198
C     1.05802  -1.27634   0.12354
C     1.08304  -2.40992  -0.93261
F     0.06992  -3.27006  -0.76336
F     2.22445  -3.10826  -0.87640
F     0.97538  -1.91138  -2.17094
C     1.26198  -1.86738   1.54174
F     2.49010  -2.37733   1.69429
F     0.38040  -2.83811   1.81627
F     1.10238  -0.91070   2.46654
C     2.18467  -0.21849  -0.15326
C     1.93012   0.83730  -1.24843
C     1.12151   2.11646  -0.89242
C    -0.30441   2.24226  -1.47216
H    -1.36844   4.62137   2.26019
H    -3.11253   4.45588   1.85719
H    -2.11182   5.70282   1.02367
H     3.09904  -0.78030  -0.39236
H     2.37140   0.29975   0.79813
H     1.50292   0.36601  -2.14458
H     2.93672   1.16809  -1.54550
H     1.68073   2.97397  -1.29479
H     1.10418   2.26841   0.20029
H    -0.55403   3.29554  -1.65603
H    -0.36291   1.71641  -2.43635
