58
Generated by autodE on: 2022-06-26. E = -1317.833555 Ha
C    -2.59517  -3.93695  -1.62750
N    -2.11967  -2.84690  -0.79806
C    -1.42757  -1.81737  -1.31230
O    -1.19996  -1.74167  -2.52675
C    -0.85092  -0.79218  -0.28487
C    -1.84274  -0.57200   0.85809
C    -3.15959  -0.20392   0.53627
C    -4.08740   0.08938   1.53603
C    -3.71398   0.01678   2.88304
C    -2.40727  -0.34692   3.21383
C    -1.47804  -0.63613   2.20777
C    -0.51682   0.55358  -0.98439
C    -0.43048   1.73192   0.00680
C     0.54475   2.79505  -0.42591
C     0.62412   4.08541   0.26641
N    -0.18639   4.24149   1.34748
O     1.38867   5.01043  -0.08073
C     1.41918   2.57268  -1.44985
N     1.51552   1.41617  -2.14470
C     2.52374   1.26271  -3.18022
C     0.81882   0.24026  -1.67073
C     1.57274  -0.70298  -0.65724
C     2.35409  -1.77347  -1.43000
C     2.56577   0.11132   0.20682
O     3.63743   0.51332  -0.26454
N     2.17346   0.34178   1.46952
C     2.79685   1.30886   2.34378
N     0.47552  -1.24290   0.16899
C     0.62376  -2.59177   0.68380
H    -3.30883  -3.57892  -2.38663
H    -1.76027  -4.42751  -2.15273
H    -3.09720  -4.67528  -0.99040
H    -2.30898  -2.86582   0.19809
H    -3.46012  -0.13741  -0.51230
H    -5.10504   0.37867   1.26320
H    -4.43879   0.24360   3.66838
H    -2.10185  -0.40483   4.26124
H    -0.46018  -0.90802   2.48644
H    -1.27118   0.77498  -1.74958
H    -1.43946   2.16135   0.11271
H    -0.16763   1.37093   1.01251
H    -0.13993   5.11134   1.86603
H    -0.79191   3.50558   1.68710
H     2.09361   3.37272  -1.76175
H     3.48320   0.90713  -2.77253
H     2.69125   2.22728  -3.67918
H     2.17267   0.54081  -3.93184
H     0.60281  -0.38036  -2.54497
H     2.91419  -2.43838  -0.75738
H     1.66143  -2.37941  -2.03098
H     3.07402  -1.29846  -2.10743
H     1.24571  -0.01736   1.68474
H     2.22161   2.25076   2.36330
H     2.86260   0.92025   3.37065
H     3.80947   1.52473   1.98050
H     1.57192  -2.67147   1.23631
H    -0.18616  -2.81670   1.39021
H     0.61476  -3.37617  -0.09465
