38
Generated by autodE on: 2022-06-26. E = -860.043752 Ha
C     4.09522   1.51155   1.25839
N     3.52601   0.68147   0.21630
C     2.33969   0.06117   0.38903
O     1.74628   0.09846   1.47882
C     1.84772  -0.74646  -0.76654
C     2.81530  -1.46198  -1.65932
N     0.53511  -0.90731  -0.93906
C     0.08974  -2.00715  -1.82135
C    -0.43084  -0.03892  -0.45352
C    -0.11105   1.38353  -0.37461
O     0.85593   1.91325  -0.96980
N    -0.93374   2.16329   0.38056
C    -0.80450   3.60353   0.39614
C    -1.69160  -0.61933   0.02085
C    -1.67250  -1.81632   0.77408
C    -2.85222  -2.40526   1.22901
C    -4.08939  -1.80723   0.96532
C    -4.12911  -0.61779   0.22821
C    -2.95258  -0.03787  -0.24671
H     3.45613   2.38486   1.47324
H     4.21290   0.94165   2.19201
H     5.08125   1.86547   0.93319
H     3.92106   0.73666  -0.71604
H     3.84963  -1.25095  -1.36739
H     2.68840  -1.16949  -2.71627
H     2.68314  -2.55539  -1.61055
H    -1.00101  -2.01102  -1.86867
H     0.45318  -2.97433  -1.45206
H     0.48459  -1.83531  -2.83200
H    -1.73161   1.74360   0.84088
H     0.21380   3.90667   0.68675
H    -1.51390   4.01541   1.12531
H    -1.01653   4.05396  -0.58916
H    -0.71040  -2.27389   1.01480
H    -2.80428  -3.33086   1.80848
H    -5.01310  -2.26321   1.32888
H    -5.08896  -0.14579   0.00333
H    -3.00927   0.86862  -0.85200
