58
Generated by autodE on: 2022-06-26. E = -1317.735356 Ha. Imaginary frequency = -381.4 cm-1
C    -4.26860  -1.93406  -0.94181
N    -3.02728  -1.61869  -0.26867
C    -1.83081  -1.79251  -0.87996
O    -1.78936  -2.30084  -2.01766
C    -0.62212  -1.28045  -0.16907
C    -0.84786  -0.66410   1.17226
C    -1.59160   0.51807   1.34840
C    -1.79268   1.06109   2.61937
C    -1.26694   0.43059   3.74972
C    -0.54149  -0.75595   3.59354
C    -0.33867  -1.29652   2.32417
C    -0.05355   0.19334  -1.92505
C    -0.83910   1.47903  -1.84559
C    -0.05180   2.52787  -1.08882
C    -0.66646   3.63356  -0.34871
N    -2.01338   3.76939  -0.45016
O    -0.00811   4.42504   0.36202
C     1.31587   2.49148  -1.15132
N     2.01533   1.45888  -1.68714
C     3.46697   1.45329  -1.60960
C     1.34970   0.22254  -1.91418
C     1.79750  -1.29416  -0.29275
C     3.01511  -2.03765  -0.78448
C     2.16696  -0.43231   0.91509
O     3.04640  -0.86010   1.68194
N     1.60303   0.76255   1.10086
C     1.91315   1.60638   2.23326
N     0.58714  -1.95721  -0.36015
C     0.59144  -3.27303  -1.02100
H    -4.33332  -1.42144  -1.91467
H    -4.37024  -3.01621  -1.12884
H    -5.10660  -1.60721  -0.31338
H    -3.05832  -1.24863   0.67350
H    -2.01034   1.03213   0.48746
H    -2.35998   1.98954   2.71944
H    -1.42023   0.85759   4.74337
H    -0.12994  -1.26581   4.46805
H     0.23852  -2.21613   2.21611
H    -0.50738  -0.61120  -2.49783
H    -1.05991   1.82869  -2.87755
H    -1.82692   1.29213  -1.39875
H    -2.47039   4.49433   0.09182
H    -2.58219   3.15367  -1.01680
H     1.90758   3.29994  -0.71863
H     3.82781   1.01232  -0.66514
H     3.84287   2.48183  -1.68181
H     3.88101   0.87015  -2.44453
H     1.90627  -0.44947  -2.56738
H     3.26972  -2.89351  -0.13774
H     3.87683  -1.35937  -0.78332
H     2.87559  -2.40794  -1.80846
H     0.83425   1.05312   0.50796
H     2.98960   1.83789   2.26564
H     1.35080   2.54280   2.12702
H     1.63680   1.12409   3.18498
H     0.72471  -3.19754  -2.10942
H    -0.34901  -3.78744  -0.81449
H     1.40448  -3.87676  -0.60204
