28
Generated by autodE on: 2022-05-29. E = -724.740051 Ha
C     0.48285   3.75541   0.18471
O     0.00273   2.41522   0.05562
C     0.91497   1.43019   0.21264
O     2.09693   1.68262   0.44229
C     0.31399   0.11575   0.07409
C    -1.14482   0.00659  -0.20162
C    -2.07868   0.26275   0.81642
C    -3.44841   0.17071   0.56165
C    -3.90274  -0.17621  -0.71527
C    -2.98119  -0.42488  -1.73692
C    -1.61057  -0.33101  -1.48261
N     1.06581  -1.01161   0.18000
C     0.34733  -2.30647   0.08425
C     2.40060  -1.06093   0.35133
C     3.10429  -2.26797   0.45920
N     3.76383  -3.23119   0.55511
H     0.90344   3.92667   1.18689
H    -0.38749   4.40367   0.02734
H     1.25375   3.96973  -0.57054
H    -1.72152   0.53297   1.81261
H    -4.16404   0.36808   1.36327
H    -4.97456  -0.24956  -0.91429
H    -3.32998  -0.68960  -2.73789
H    -0.89113  -0.51898  -2.28287
H     0.97733  -3.09841   0.49777
H    -0.58559  -2.24591   0.65168
H     0.12566  -2.52165  -0.96764
H     2.94177  -0.12068   0.40348
