13
Generated by autodE on: 2022-05-29. E = -406.788330 Ha
F     0.64670  -2.02005   0.93595
C     0.51400  -0.85092   0.31634
C     1.31980   0.20885   0.29377
C     0.48977   1.23927  -0.50931
C    -0.72438   1.65826   0.35765
C    -1.51170   0.58004   0.39746
C    -0.76650  -0.47816  -0.45382
O    -0.17593   0.36779  -1.45650
H     2.27484   0.38361   0.78414
H     1.04836   2.03743  -1.00999
H    -0.83630   2.62148   0.85458
H    -2.44481   0.41019   0.93322
H    -1.34774  -1.30571  -0.87524
