36
Generated by autodE on: 2022-05-29. E = -1120.229720 Ha
C     4.50628   1.95543   1.00361
O     3.16060   1.69160   0.56890
C     2.67702   0.48925   0.83610
O     3.28070  -0.38461   1.42471
C     1.27152   0.29758   0.32630
N     0.74017   1.14234  -0.46849
C    -0.63193   0.73156  -0.75808
C    -0.87626   0.81005  -2.20173
N    -1.03491   0.85980  -3.34832
C    -1.57526   1.69213   0.01653
O    -1.30267   2.10421   1.11680
O    -2.69111   1.91774  -0.64777
C    -3.71038   2.68383   0.02738
C    -0.81708  -0.74145  -0.18738
C    -2.07846  -0.89566   0.51776
N    -3.09361  -1.01264   1.06729
C    -0.61036  -1.90281  -1.25708
C    -0.86410  -3.20569  -0.51581
C     0.21578  -3.38515   0.25457
C     1.11292  -2.19409  -0.02389
O     0.80469  -1.88541  -1.39049
C     0.48228  -0.93622   0.70156
C     0.26905  -1.08419   2.20347
H     5.20414   1.25755   0.51959
H     4.72174   2.98587   0.70076
H     4.57901   1.85166   2.09550
H    -4.53598   2.77254  -0.68650
H    -3.31968   3.67462   0.29546
H    -4.03338   2.14702   0.93022
H    -1.12295  -1.73689  -2.20895
H    -1.78321  -3.78755  -0.56726
H     0.40874  -4.15857   0.99664
H     2.18885  -2.30538   0.13578
H    -0.39371  -1.93410   2.41637
H     1.23094  -1.25609   2.70429
H    -0.18749  -0.17373   2.61709
