17
Generated by autodE on: 2022-05-29. E = -439.145383 Ha
C    -2.39760  -0.22756  -0.49243
C    -0.99161  -0.28058  -0.04141
C    -0.09044   0.69542   0.20746
C    -0.25685   2.08959   0.10734
N    -0.38056   3.24795   0.03336
C     1.24015  -0.05260   0.52637
C     1.70428  -0.71162  -0.78969
C     0.80722  -1.67331  -1.02768
C    -0.18290  -1.58807   0.15301
O     0.69989  -1.18857   1.21608
H    -3.04888  -0.77463   0.21006
H    -2.76071   0.80451  -0.59464
H    -2.49237  -0.73951  -1.46657
H     1.97999   0.49207   1.12100
H     2.55132  -0.38190  -1.39011
H     0.71161  -2.34759  -1.87774
H    -0.76328  -2.48294   0.40163
