19
Generated by autodE on: 2022-05-29. E = -680.987232 Ha
C    -4.60790  -1.05630   0.69615
O    -3.40639  -0.39420   0.24252
C    -2.26209  -0.90509   0.65618
O    -2.09012  -1.86376   1.37606
C    -1.13518  -0.16062   0.13115
N    -0.15930   0.35493  -0.24966
C     0.98124   0.89889  -0.64988
C     0.95760   2.02971  -1.49804
N     0.95212   2.96263  -2.19774
C     2.26124   0.32903  -0.21830
O     3.34133   0.78207  -0.55439
O     2.09700  -0.73370   0.57637
C     3.29136  -1.37021   1.05365
H    -4.61316  -2.09912   0.35079
H    -5.43630  -0.49640   0.25010
H    -4.66225  -1.02250   1.79290
H     3.88896  -0.66756   1.65211
H     3.89386  -1.73892   0.21100
H     2.95648  -2.20829   1.67548
