36
Generated by autodE on: 2022-05-29. E = -1120.135179 Ha. Imaginary frequency = -314.0 cm-1
C     4.95425   0.60350   0.66440
O     3.61045   0.49233   0.14316
C     2.63864   0.93875   0.91450
O     2.73489   1.41520   2.02128
C     1.32026   0.71168   0.28787
N     0.51437   1.30757  -0.37058
C    -0.70868   1.36804  -0.86147
C    -0.93687   1.08338  -2.23135
N    -1.13670   0.82241  -3.34891
C    -1.76531   1.90362   0.02808
O    -1.56677   2.21223   1.18557
O    -2.93983   1.95161  -0.59375
C    -4.06776   2.38412   0.18738
C    -0.83216  -1.22120   0.08877
C    -2.11490  -1.01116   0.62605
N    -3.18643  -0.84753   1.06067
C    -0.54678  -2.01298  -1.21583
C    -0.40680  -3.48756  -0.78667
C     0.73878  -3.53948  -0.09932
C     1.28392  -2.09823  -0.12374
O     0.82733  -1.65371  -1.41082
C     0.36131  -1.25214   0.80108
C     0.50106  -1.19373   2.28740
H     5.60343   0.17097  -0.10379
H     5.03538   0.04153   1.60479
H     5.20274   1.66008   0.83275
H    -4.21586   1.70823   1.03983
H    -3.91031   3.41200   0.54352
H    -4.92982   2.34228  -0.48756
H    -1.16873  -1.78123  -2.08562
H    -1.14639  -4.26561  -0.97168
H     1.19995  -4.37298   0.42871
H     2.36149  -1.95715   0.00694
H     0.22296  -2.17807   2.70506
H     1.53153  -0.97980   2.60214
H    -0.17041  -0.43667   2.71774
