41
Generated by autodE on: 2022-06-19. E = -845.166651 Ha
C    -0.65830   3.41898  -1.72687
C    -1.28959   2.68415  -0.80176
C    -2.78893   2.67874  -0.67067
C    -0.58745   1.78278   0.19770
C     0.93076   2.01552   0.33157
C     1.41326   1.67327   1.68720
N     1.83043   1.41528   2.73991
N     1.51974   1.18917  -0.71506
C     0.67534   0.01350  -0.97862
C     0.42435  -0.13914  -2.48300
C     1.33679  -1.24377  -0.40902
O     2.22448  -1.22811   0.42169
O     0.82503  -2.36654  -0.90926
C     1.26022  -3.59907  -0.31859
C    -0.67830   0.27764  -0.19743
C    -0.89333  -0.60699   1.00430
C    -1.61228  -1.74358   1.04328
C    -2.33511  -2.33570  -0.13481
C    -1.71287  -2.54813   2.31122
H    -1.22366   4.04621  -2.42225
H     0.42804   3.41508  -1.83558
H    -3.26874   3.29261  -1.44624
H    -3.19062   1.65361  -0.74133
H    -3.09150   3.06203   0.31927
H    -1.07799   1.93172   1.17065
H     1.18047   3.07882   0.18978
H     2.47614   0.91803  -0.49711
H    -0.05134   0.77664  -2.85966
H     1.37362  -0.28781  -3.02086
H    -0.23475  -0.99196  -2.69324
H     2.34433  -3.72740  -0.44704
H     1.01276  -3.61183   0.75273
H     0.71930  -4.39460  -0.84335
H    -1.50011   0.12701  -0.90554
H    -0.38791  -0.29571   1.92422
H    -1.89841  -3.31677  -0.38999
H    -3.39321  -2.52273   0.11713
H    -2.29762  -1.70714  -1.03393
H    -2.76646  -2.67097   2.61831
H    -1.15917  -2.08427   3.14078
H    -1.31586  -3.56672   2.15449
