23
Generated by autodE on: 2022-06-19. E = -351.521383 Ha
C     3.65159   0.37387   0.90865
C     2.57972  -0.01580   0.18402
C     2.73991  -0.81029  -1.08690
C     1.23195   0.33141   0.63022
C     0.07901  -0.00129  -0.00292
C    -1.23420   0.36818   0.48460
C    -2.43057   0.07175  -0.08330
C    -2.59734  -0.71531  -1.35218
C    -3.71526   0.52768   0.54891
H     4.67094   0.12758   0.59856
H     3.53149   0.95025   1.83119
H     3.79984  -1.00147  -1.30615
H     2.29851  -0.27871  -1.94630
H     2.22008  -1.78028  -1.01712
H     1.16967   0.91101   1.55916
H     0.13366  -0.57968  -0.92907
H    -1.24691   0.94961   1.41450
H    -3.20900  -1.61557  -1.16454
H    -3.15109  -0.12090  -2.10027
H    -1.64913  -1.03480  -1.80325
H    -4.36259  -0.33576   0.78622
H    -4.29339   1.15864  -0.14999
H    -3.54436   1.09865   1.47335
