18
Generated by autodE on: 2022-06-19. E = -493.604450 Ha
C    -3.68204   0.72746   0.09550
O    -2.56307  -0.09413  -0.25641
C    -1.35063   0.36177   0.09106
O    -1.17657   1.42466   0.68302
C    -0.26783  -0.52900  -0.30506
C    -0.41442  -1.82021  -1.02203
N     0.93995  -0.08365   0.03411
C     2.14071  -0.64439  -0.17705
C     3.30457  -0.00009   0.26147
N     4.29099   0.52048   0.61957
H    -4.57142   0.19813  -0.26586
H    -3.73798   0.86086   1.18594
H    -3.60620   1.71316  -0.38680
H     0.00733  -2.65058  -0.42684
H     0.13839  -1.80298  -1.97900
H    -1.46791  -2.03568  -1.22864
H     0.91797   0.82124   0.52405
H     2.20250  -1.60067  -0.69367
