41
Generated by autodE on: 2022-06-19. E = -845.111313 Ha. Imaginary frequency = -391.1 cm-1
C    -2.11630   2.14872  -2.02320
C    -1.73440   2.43334  -0.76201
C    -1.90002   3.82258  -0.19921
C    -1.12551   1.45522   0.16526
C     1.00751   2.11643   0.03142
C     1.27827   3.00242   1.10693
N     1.43261   3.72982   2.00634
N     1.57207   0.87660   0.07222
C     1.12757  -0.11334  -0.75169
C     0.94883   0.14277  -2.21751
C     1.49420  -1.45063  -0.25682
O     1.97198  -1.65516   0.85120
O     1.18119  -2.43086  -1.10920
C     1.43784  -3.77172  -0.67088
C    -1.05192   0.06467  -0.08110
C    -1.07699  -0.86988   1.03796
C    -1.45167  -2.17059   1.01649
C    -1.97908  -2.88061  -0.20006
C    -1.37138  -3.01630   2.25642
H    -2.02187   1.14846  -2.45191
H    -2.54831   2.92269  -2.66347
H    -2.37286   4.50281  -0.92179
H    -2.51636   3.80031   0.71571
H    -0.92743   4.25172   0.09496
H    -1.16299   1.75034   1.21797
H     0.86011   2.57977  -0.94436
H     1.85586   0.53236   0.99268
H     0.40714  -0.68808  -2.68416
H     1.93247   0.23367  -2.71256
H     0.38526   1.06359  -2.41162
H     2.51868  -3.93039  -0.54346
H     0.92556  -3.97438   0.27961
H     1.05056  -4.42647  -1.45960
H    -1.40860  -0.29926  -1.04497
H    -0.73127  -0.45990   1.99485
H    -1.43400  -3.82484  -0.36535
H    -3.03717  -3.16185  -0.04801
H    -1.91593  -2.28413  -1.11918
H    -1.01326  -2.44507   3.12580
H    -2.35422  -3.45488   2.50698
H    -0.68697  -3.87011   2.09878
