29
Generated by autodE on: 2022-06-17. E = -820.155119 Ha
C     4.21635   0.04007  -1.03060
O     2.79155   0.23778  -0.97065
C     2.25785   0.33162   0.23543
O     2.87010   0.26845   1.27876
C     0.75218   0.51749   0.21417
C     0.19093   1.67532   1.04542
C    -1.30248   1.27786   1.11903
C    -1.31197  -0.05966   0.30259
C    -2.54239  -0.90730   0.56844
C    -3.83399  -0.43028  -0.02320
O    -2.46270  -1.90189   1.26605
C    -1.04166   0.40026  -1.14721
O    -1.76850   0.51556  -2.10082
O     0.26644   0.73943  -1.16843
N    -0.00304  -0.62610   0.68297
C     0.35391  -1.90398   0.05898
H     4.48852  -0.89846  -0.52765
H     4.73529   0.88150  -0.55063
H     4.46669  -0.00850  -2.09591
H     0.67161   1.68682   2.03040
H     0.36720   2.63283   0.54026
H    -1.62000   1.06040   2.14642
H    -1.97971   2.02163   0.68219
H    -4.66626  -1.02248   0.37792
H    -3.78569  -0.53663  -1.11848
H    -3.98649   0.64052   0.18272
H    -0.31058  -2.68411   0.44434
H     0.28908  -1.89370  -1.04412
H     1.38263  -2.16435   0.34445
