23
Generated by autodE on: 2022-07-27. E = -741.491959 Ha
C     4.02803   1.31191  -1.35012
O     2.61497   1.19006  -1.10667
C     2.22939   0.15845  -0.36716
O     2.97057  -0.67693   0.10954
C     0.75703   0.17094  -0.20319
O     0.03529   1.14046  -0.75927
C    -1.34329   0.92437  -0.45355
O    -2.17950   1.69935  -0.86825
C    -1.34486  -0.26397   0.33374
C    -2.48955  -0.93729   0.91772
C    -3.83697  -0.30545   0.66836
O    -2.38173  -1.97021   1.58416
N    -0.01724  -0.67851   0.44950
C     0.42667  -1.87116   1.17977
H     4.14659   2.20779  -1.96900
H     4.39806   0.42397  -1.88191
H     4.56718   1.42583  -0.39912
H    -3.85869   0.72835   1.04682
H    -4.60731  -0.90518   1.16999
H    -4.04684  -0.25169  -0.41139
H    -0.06658  -2.74928   0.74935
H     0.12704  -1.77224   2.22886
H     1.51108  -1.94916   1.09019
