20
Generated by autodE on: 2022-06-03. E = -614.916162 Ha
C     3.78377   0.37565  -0.18549
N     2.41461   0.02276   0.12585
C     1.37794   0.22297  -0.71964
O     1.50131   0.72270  -1.84905
C     0.04983  -0.18136  -0.23372
C    -0.43463  -0.50899   0.97217
F     0.19943  -0.64317   2.12729
C    -1.96413  -0.59725   0.84848
C    -2.46939   0.84786   0.61649
C    -2.02102   1.17079  -0.59975
C    -1.23942  -0.07225  -1.08426
O    -2.03604  -1.12122  -0.48719
H     4.43141  -0.51574  -0.20290
H     3.81248   0.84993  -1.17305
H     4.18811   1.08091   0.55772
H     2.22409  -0.39141   1.03234
H    -2.48248  -1.21652   1.58820
H    -3.02149   1.44050   1.34452
H    -2.10709   2.10720  -1.14958
H    -1.11047  -0.20587  -2.16256
