32
Generated by autodE on: 2022-06-03. E = -785.176911 Ha
C    -2.37667   2.98091  -0.83549
O    -1.85588   1.67384  -0.58354
C    -0.53835   1.59819  -0.28396
O     0.16183   2.60655  -0.23330
C    -0.13159   0.21976  -0.05311
C    -1.16566  -0.84753  -0.17357
C    -1.91889  -1.23665   0.94504
C    -2.90592  -2.21849   0.82734
C    -3.15293  -2.81924  -0.41117
C    -2.41177  -2.43216  -1.53229
C    -1.42526  -1.44998  -1.41443
N     1.14532  -0.11664   0.26442
C     1.39906  -1.56884   0.44996
C     2.16886   0.74820   0.42326
C     3.55291   0.47125   0.74589
C     4.39205   1.73100   0.84813
O     4.08703  -0.63399   0.93429
H    -1.87051   3.44586  -1.69474
H    -2.25549   3.62783   0.04627
H    -3.44190   2.84344  -1.05672
H    -1.72650  -0.76281   1.91046
H    -3.48530  -2.51367   1.70535
H    -3.92515  -3.58669  -0.50351
H    -2.60367  -2.89528  -2.50308
H    -0.84743  -1.14279  -2.28921
H     1.12776  -2.09663  -0.47065
H     0.77155  -1.93585   1.26953
H     2.45528  -1.70920   0.67920
H     1.90333   1.78969   0.28406
H     4.36535   2.29274  -0.09967
H     3.99388   2.39789   1.63014
H     5.42959   1.46372   1.08753
