52
Generated by autodE on: 2022-06-03. E = -1400.087183 Ha. Imaginary frequency = -255.0 cm-1
C     6.05571  -2.24887  -0.18533
N     5.07823  -1.33488   0.37012
C     3.75250  -1.54147   0.21849
O     3.30162  -2.52722  -0.38812
C     2.84512  -0.54505   0.80380
C     3.02251   0.66703   1.35020
F     4.14702   1.32992   1.58138
C     1.63103   1.27946   1.57338
O     0.91824   0.07817   1.90222
C     1.30624  -0.64816   0.71172
C     0.81927   0.32793  -0.37252
C     1.08163   1.57305   0.16550
C    -1.27390   2.32773   0.55227
C    -0.91410   3.10148  -0.61120
C    -0.49820   4.52714  -0.31224
O    -0.93109   2.70178  -1.78503
N    -1.78079   1.06631   0.63806
C    -2.33831   0.75973   1.97292
C    -1.56308   0.08103  -0.29082
C    -1.82198   0.39700  -1.74743
O    -1.18092  -0.03704  -2.68352
O    -3.00819   1.00528  -1.88693
C    -3.40918   1.31932  -3.22610
C    -1.84633  -1.34711   0.02206
C    -1.44637  -1.95376   1.23371
C    -1.70002  -3.30113   1.48776
C    -2.35666  -4.09214   0.54136
C    -2.75980  -3.51309  -0.66459
C    -2.51099  -2.16497  -0.91973
H     5.92171  -3.26724   0.21284
H     7.06025  -1.89707   0.07917
H     5.97838  -2.30480  -1.28336
H     5.39983  -0.50624   0.85842
H     1.55036   2.05541   2.34165
H     0.91753  -1.66858   0.69847
H     0.79710   0.07035  -1.42785
H     1.35566   2.47090  -0.38068
H    -1.36335   2.89254   1.47926
H    -1.39559   5.16914  -0.33755
H     0.19180   4.87686  -1.09272
H    -0.03399   4.63454   0.67815
H    -1.53831   0.55636   2.69518
H    -2.90803   1.63495   2.30446
H    -3.01692  -0.09471   1.90963
H    -4.36768   1.84464  -3.14017
H    -2.66239   1.96829  -3.70432
H    -3.53272   0.40145  -3.81931
H    -0.91753  -1.37603   1.98579
H    -1.37164  -3.73575   2.43469
H    -2.55098  -5.14834   0.74089
H    -3.27993  -4.11207  -1.41564
H    -2.85297  -1.75199  -1.86820
