16
Generated by autodE on: 2022-05-29. E = -384.066321 Ha
C     0.82677  -1.69817   0.29069
C     0.24473  -0.50272   0.07827
C    -1.25692  -0.48582  -0.11047
C    -2.02923   0.78380   0.11471
O    -1.83591  -1.52228  -0.40609
C     1.05787   0.75410   0.01267
C     2.49670   0.70487   0.46200
O     0.57511   1.79446  -0.41534
H     0.21834  -2.60593   0.29633
H     1.89925  -1.80869   0.45789
H    -1.66811   1.32348   1.00236
H    -1.88472   1.45607  -0.74438
H    -3.09481   0.53740   0.21441
H     3.08115   0.03718  -0.19083
H     2.91956   1.71626   0.41186
H     2.57586   0.31386   1.48782
