18
Generated by autodE on: 2022-07-26. E = -381.391080 Ha
C    -0.57307   2.01249  -0.31801
N    -0.98608   1.24348   0.82419
N    -0.31402   0.18775   1.11273
C    -0.60511  -0.36450   2.45480
C     0.63792  -0.48165   0.40124
C     0.69051  -0.75697  -1.00892
C    -0.52322  -0.56473  -1.89359
O     1.70417  -1.29982  -1.48771
H     0.49030   1.84834  -0.57441
H    -1.16772   1.80272  -1.21992
H    -0.74556   3.07122  -0.07204
H    -1.15294   0.38939   3.02778
H    -1.19976  -1.28067   2.34146
H     0.34356  -0.60790   2.94933
H     1.33577  -1.04786   1.01890
H    -0.60519  -1.45533  -2.53408
H    -1.45989  -0.42800  -1.33809
H    -0.37848   0.30311  -2.55693
