34
Generated by autodE on: 2022-05-29. E = -765.452004 Ha. Imaginary frequency = -359.4 cm-1
C    -1.82894  -1.48659  -2.26821
C    -0.73459  -1.57305  -1.22865
O     0.37117  -2.01221  -1.53039
C    -1.01414  -1.39533   0.22018
N    -1.66521  -0.48144   0.93129
C    -2.01496  -0.82522   2.32545
N    -1.89185   0.80432   0.67025
C    -2.03760   1.16022  -0.72304
C    -0.07829   1.61934   1.16493
C     0.92803   0.94329   0.46214
C     1.68774  -0.15811   1.07802
C     1.52521  -0.41552   2.56714
O     2.52435  -0.82849   0.46235
C     1.27046   1.48042  -0.87943
C     2.30313   0.81215  -1.75110
O     0.71687   2.50280  -1.30210
H    -1.86201  -2.47009  -2.76305
H    -2.81564  -1.26255  -1.85061
H    -1.56861  -0.74356  -3.03673
H    -0.70505  -2.26680   0.80164
H    -1.72083  -0.00034   2.98334
H    -3.10571  -0.94672   2.37239
H    -1.52382  -1.75615   2.62481
H    -1.21560   0.82501  -1.37370
H    -2.98216   0.75656  -1.11673
H    -2.08439   2.25413  -0.77930
H    -0.19973   1.47014   2.23638
H    -0.38653   2.59572   0.79154
H     1.91784   0.44552   3.13299
H     2.10770  -1.30819   2.82949
H     0.48641  -0.56048   2.88280
H     2.40055   1.39383  -2.67811
H     2.00131  -0.22000  -1.97950
H     3.27327   0.74518  -1.23909
