29
Generated by autodE on: 2022-05-28. E = -762.896284 Ha
C     2.81504  -2.70977   0.83435
N     1.92746  -1.56408   0.80981
C     2.24462  -0.44418   0.13186
O     3.31587  -0.32021  -0.47641
C     1.23827   0.65564   0.15457
C     1.36673   1.78112  -0.55392
C     0.18701   2.67643  -0.28559
C    -0.61826   2.90995  -1.50688
N    -1.26078   3.08184  -2.45715
O    -0.58684   2.00098   0.69371
C    -0.04714   0.68481   0.95570
C    -1.03905  -0.39979   0.58411
C    -1.41879  -0.58966  -0.75389
C    -2.33115  -1.58992  -1.09019
C    -2.86727  -2.41691  -0.09478
C    -2.49215  -2.23404   1.23819
C    -1.58410  -1.22441   1.57600
H     2.94201  -3.14365  -0.17105
H     2.39105  -3.47247   1.49844
H     3.81062  -2.42476   1.20696
H     1.00734  -1.65691   1.22742
H     2.17848   2.04106  -1.23198
H     0.49552   3.66805   0.09369
H     0.16096   0.62041   2.03674
H    -0.99591   0.04694  -1.53460
H    -2.62249  -1.73125  -2.13363
H    -3.57686  -3.20377  -0.36125
H    -2.90888  -2.87446   2.01902
H    -1.29196  -1.07457   2.61878
