18
Generated by autodE on: 2022-07-26. E = -477.257661 Ha
N    -1.43558   2.07991  -1.39494
C    -0.34907   2.25387  -0.97897
C     0.93033   2.47193  -0.48702
O     1.43736   1.78008   0.56108
C     1.16870   0.63519   1.09600
C     0.36261  -0.44353   0.59278
C     0.07640  -0.66892  -0.77686
C    -0.60707  -1.81906  -1.16663
C    -1.04126  -2.74756  -0.21492
C    -0.75675  -2.54171   1.14222
C    -0.04962  -1.41444   1.54130
H     1.46610   3.40174  -0.66521
H     1.69764   0.50564   2.04372
H     0.42864   0.02228  -1.53919
H    -0.80659  -1.98931  -2.22684
H    -1.59292  -3.63621  -0.52971
H    -1.08341  -3.27029   1.88737
H     0.19055  -1.26074   2.59586
