18
Generated by autodE on: 2022-05-28. E = -477.266934 Ha
N     4.28119   0.89716  -0.13574
C     3.55013  -0.01909  -0.24131
C     2.66681  -1.08254  -0.36200
O     1.33700  -0.89594  -0.23968
C     0.68309   0.19038  -0.00740
C    -0.74590   0.15745   0.07976
C    -1.49058  -1.03598  -0.07853
C    -2.87747  -1.00774   0.01514
C    -3.54853   0.19841   0.26593
C    -2.82041   1.38367   0.42385
C    -1.43098   1.36850   0.33255
H     2.95280  -2.11180  -0.55696
H     1.24513   1.12200   0.11831
H    -0.96855  -1.97418  -0.27405
H    -3.44653  -1.93199  -0.10793
H    -4.63830   0.21198   0.33775
H    -3.34086   2.32387   0.61903
H    -0.85812   2.29073   0.45468
