30
Generated by autodE on: 2022-06-17. E = -800.297716 Ha
C     4.53491  -0.49195   0.86446
N     3.13775  -0.33325   0.52458
C     2.70278   0.23772  -0.60904
O     3.42785   0.69201  -1.50179
C     1.20490   0.30792  -0.75147
N     0.41341  -0.11249   0.16152
C    -0.97038   0.16914  -0.25566
C    -1.59402   1.32503   0.57839
C    -0.82284   1.86268   1.74075
O    -2.68862   1.73966   0.24974
C    -1.84383  -1.06104   0.02812
O    -2.40507  -1.72280  -0.81517
O    -1.91357  -1.30219   1.33539
C    -2.70623  -2.42751   1.75134
C    -0.90623   0.53217  -1.75924
C     0.56231   0.92796  -1.95899
H     5.14634  -0.17002   0.01305
H     4.76342  -1.54462   1.09098
H     4.80283   0.11682   1.74300
H     2.42443  -0.64964   1.17587
H     0.14149   2.26583   1.39270
H    -1.40306   2.64628   2.24448
H    -0.59034   1.04334   2.43800
H    -3.74942  -2.29650   1.43075
H    -2.64246  -2.45208   2.84487
H    -2.30181  -3.35566   1.32341
H    -1.62481   1.31781  -2.02032
H    -1.15025  -0.36221  -2.34677
H     0.72413   2.01926  -1.92650
H     1.00588   0.56385  -2.89613
