24
Generated by autodE on: 2022-06-17. E = -721.579688 Ha
C     4.92081   0.78275  -0.30279
N     3.56219   0.29548  -0.14918
C     2.48624   1.07072  -0.33687
O     2.46016   2.26047  -0.64605
C     1.20793   0.38759  -0.13685
N     0.13025  -0.02964   0.00006
C    -1.02235  -0.67620   0.19924
C    -0.87203  -2.08506   0.56380
C    -2.10984  -2.90621   0.81344
O     0.25451  -2.58153   0.66181
C    -2.26229   0.07051   0.03341
O    -3.38838  -0.37934   0.18235
O    -2.03092   1.35372  -0.31425
C    -3.18343   2.18093  -0.50650
H     5.50648   0.56027   0.60099
H     4.89729   1.86710  -0.45872
H     5.41016   0.30705  -1.16675
H     3.41487  -0.68198   0.09391
H    -2.75905  -2.91429  -0.07461
H    -2.70268  -2.47585   1.63437
H    -1.80438  -3.92987   1.06691
H    -2.80140   3.17127  -0.78133
H    -3.77427   2.24830   0.41890
H    -3.81771   1.78468  -1.31320
