26
Generated by autodE on: 2022-10-26. E = -814.119638 Ha
C     5.10007  -0.01494  -0.02343
N     3.75074   0.50944  -0.00996
C     2.66208  -0.26781  -0.08049
O     2.66127  -1.49471  -0.23485
N     1.46537   0.49747   0.02994
N     0.45777  -0.28598  -0.04619
C    -0.85834  -0.06336  -0.00035
C    -1.61314  -1.33335  -0.13083
O    -1.03898  -2.41403  -0.26378
O    -2.93348  -1.20618  -0.09076
C    -3.69994  -2.41478  -0.21438
C    -1.47744   1.26620   0.15817
O    -2.68258   1.46785   0.17991
O    -0.57484   2.24610   0.27727
C    -1.09194   3.57315   0.44341
H     5.10855  -0.98469  -0.53600
H     5.76273   0.67849  -0.55916
H     5.49308  -0.15512   0.99764
H     3.60103   1.49381   0.19264
H     0.69508  -1.30234  -0.16967
H    -3.46800  -3.10173   0.61199
H    -3.48661  -2.90806  -1.17340
H    -4.75032  -2.10584  -0.16977
H    -1.67199   3.87461  -0.44106
H    -0.21640   4.22188   0.56195
H    -1.73258   3.63003   1.33524
