13
Generated by autodE on: 2022-10-21. E = -344.660265 Ha
C     3.17974  -0.24203  -0.16542
O     2.00291  -0.55579  -0.96623
C     0.86079  -0.26634  -0.46841
C    -0.24558  -0.00381  -0.02656
C    -1.56309   0.29941   0.46800
C    -2.71009  -0.05750  -0.44174
O    -1.73401   0.82007   1.56792
H     3.13590  -0.80249   0.77843
H     4.03950  -0.55787  -0.76593
H     3.21209   0.83959   0.02423
H    -3.66229   0.21787   0.03145
H    -2.69406  -1.13817  -0.65765
H    -2.60070   0.46677  -1.40498
