39
Generated by autodE on: 2022-10-21. E = -1158.766068 Ha. Imaginary frequency = -316.2 cm-1
C     5.09093  -0.23827   0.62480
N     3.74244   0.28474   0.71387
C     2.69424  -0.50920   0.97485
O     2.76580  -1.68777   1.33359
N     1.44624   0.17009   0.81536
N     0.46155  -0.63138   1.12836
C    -0.80457  -0.34684   0.81310
C    -1.66727  -1.56411   0.78084
O    -1.19300  -2.68481   0.84512
O    -2.95986  -1.30206   0.68050
C    -3.83289  -2.42904   0.50669
C    -1.37615   1.03040   0.92319
O    -2.40759   1.38663   0.38952
O    -0.63834   1.81637   1.70244
C    -1.07066   3.17944   1.83501
C    -0.19216   0.18990  -1.37876
C    -1.39661  -0.03792  -2.14330
C    -1.86907   1.12782  -2.97524
O    -2.00788  -1.10449  -2.11280
C     1.00661   0.51746  -1.20303
O     2.14818   1.00988  -1.58617
C     2.10457   1.77608  -2.81437
H     5.27619  -0.93681   1.45158
H     5.26276  -0.77239  -0.32547
H     5.80416   0.59267   0.69486
H     3.53491   1.18409   0.28953
H     0.69434  -1.63666   1.22095
H    -3.76964  -3.10234   1.37292
H    -3.56166  -2.97363  -0.40882
H    -4.84254  -2.01295   0.41851
H    -1.09658   3.66740   0.85012
H    -0.33172   3.66523   2.48211
H    -2.06862   3.22333   2.29370
H    -2.69945   0.81804  -3.62448
H    -2.21106   1.92359  -2.29296
H    -1.04295   1.54148  -3.57342
H     1.39674   2.61026  -2.70388
H     1.80074   1.12361  -3.64554
H     3.12225   2.15102  -2.97287
