33
Generated by autodE on: 2022-07-27. E = -860.423866 Ha
C     2.50960  -0.65282  -2.62292
N     1.49341   0.03114  -1.84687
C     1.22995  -0.32233  -0.57920
O     1.85834  -1.20280   0.02076
C     0.18299   0.46501   0.14391
O    -0.56592  -0.13838   1.03621
C    -0.91354  -1.41077   1.22789
C    -1.53480  -1.68176   2.55473
C    -0.89195  -2.33983   0.13606
O    -0.63177  -2.07228  -1.03896
O    -1.28367  -3.57940   0.52477
C    -1.41128  -4.55554  -0.51098
C     0.09704   1.91313   0.16825
C     1.10993   2.73850  -0.37686
C     0.99957   4.12608  -0.32125
C    -0.11170   4.72896   0.27841
C    -1.11938   3.92501   0.82586
C    -1.02338   2.53793   0.76976
H     2.55683  -0.20203  -3.62140
H     2.27240  -1.72439  -2.72305
H     3.49742  -0.56511  -2.14483
H     0.90429   0.72427  -2.29660
H    -2.42773  -2.31764   2.46158
H    -0.83600  -2.19768   3.23863
H    -1.81807  -0.72975   3.02801
H    -0.45562  -4.69479  -1.03855
H    -2.18265  -4.26004  -1.23841
H    -1.70463  -5.48861  -0.01472
H     1.99639   2.29281  -0.82641
H     1.79617   4.74340  -0.74278
H    -0.19365   5.81739   0.31728
H    -1.99420   4.38552   1.29084
H    -1.82436   1.92023   1.17755
