33
Generated by autodE on: 2022-07-03. E = -860.423881 Ha
C    -0.46807   2.53531   2.63400
N    -0.78498   1.57005   1.59913
C     0.08910   0.61385   1.24911
O     1.17984   0.45782   1.81156
C    -0.34084  -0.34708   0.18606
O     0.55905  -0.83275  -0.63564
C     1.75851  -0.40748  -1.03144
C     2.57055  -1.43902  -1.73618
C     2.09167   0.98623  -0.97270
O     1.33549   1.90139  -0.63993
O     3.35216   1.21706  -1.41890
C     3.74804   2.58646  -1.51655
C    -1.62083  -1.02876   0.14724
C    -1.97024  -1.79818  -0.98994
C    -3.18221  -2.47992  -1.04221
C    -4.08318  -2.40884   0.02768
C    -3.75263  -1.65082   1.15651
C    -2.53914  -0.96987   1.22313
H     0.42686   3.11953   2.36506
H    -1.31792   3.21770   2.75489
H    -0.27289   2.03463   3.59484
H    -1.63763   1.67959   1.05965
H     3.37730  -1.83685  -1.09338
H     1.92493  -2.28434  -2.01744
H     3.04622  -1.03197  -2.64081
H     3.67754   3.08588  -0.53850
H     3.12053   3.12739  -2.24133
H     4.78995   2.57817  -1.85887
H    -1.28527  -1.83960  -1.83764
H    -3.43336  -3.06385  -1.93080
H    -5.03683  -2.93914  -0.01947
H    -4.44363  -1.59666   2.00087
H    -2.29306  -0.40727   2.12302
