64
Generated by autodE on: 2022-07-03. E = -2098.949725 Ha. Imaginary frequency = -167.3 cm-1
C    -1.84891   4.96071  -4.20450
N    -2.63875   5.53814  -3.13463
C    -2.54767   5.06770  -1.87823
O    -1.71413   4.22333  -1.54914
C    -3.51640   5.72402  -0.89667
C    -3.68199   7.17286  -0.84591
C    -2.72603   8.04627  -1.40987
C    -2.89073   9.42666  -1.32326
C    -4.00435   9.96837  -0.67465
C    -4.96137   9.11292  -0.11419
C    -4.80813   7.73372  -0.20041
O    -4.45732   5.06156  -0.27976
C    -4.72953   3.77465  -0.04442
C    -5.73671   3.59595   1.05162
C    -4.68190   2.86366  -1.17884
O    -4.24706   3.13159  -2.29312
O    -5.25566   1.68032  -0.89245
C    -5.31733   0.71957  -1.94982
C    -2.60952   3.70644   1.37536
C    -2.21487   4.87225   1.37434
C    -1.41287   5.87698   2.09711
C    -0.16169   6.25126   1.26879
F     0.55384   7.20991   1.88195
F    -0.46170   6.69493   0.04097
F     0.63725   5.18730   1.11177
C    -2.23418   7.16191   2.43040
F    -2.10445   8.12459   1.50844
F    -3.54274   6.88056   2.53544
F    -1.85085   7.69944   3.59868
C    -0.94011   5.19520   3.42155
C    -2.07042   4.68253   4.34507
C    -2.21298   3.15371   4.46709
C    -3.03817   2.38877   3.42196
C    -2.46528   2.37732   2.00247
F    -1.07035   2.12578   2.09571
C    -2.99245   1.21013   1.13543
C    -2.20947   0.91817  -0.10962
O    -3.95926   0.56772   1.49128
H    -2.02213   5.53392  -5.12349
H    -2.12824   3.90816  -4.37841
H    -0.77746   4.99406  -3.95744
H    -3.38391   6.18610  -3.36882
H    -1.83844   7.64853  -1.89753
H    -2.13655  10.08497  -1.76010
H    -4.12924  11.05146  -0.60797
H    -5.83799   9.52750   0.38875
H    -5.56130   7.07447   0.23052
H    -6.77267   3.70856   0.68316
H    -5.64681   2.59578   1.49343
H    -5.56042   4.34218   1.83824
H    -4.32165   0.54670  -2.38162
H    -6.00064   1.06098  -2.74201
H    -5.69739  -0.20298  -1.49573
H    -0.30209   4.35744   3.11578
H    -0.30116   5.90991   3.95743
H    -3.04273   5.11537   4.06679
H    -1.85682   5.06628   5.35360
H    -2.70070   2.94664   5.43293
H    -1.21078   2.70067   4.53363
H    -3.12309   1.34149   3.74857
H    -4.06101   2.78923   3.36646
H    -2.06555   1.83361  -0.70356
H    -1.20650   0.56910   0.18150
H    -2.71260   0.14448  -0.70104
