33
Generated by autodE on: 2022-06-17. E = -910.807939 Ha
C    -2.82815  -1.17792   0.78772
N    -1.56156  -1.32650   0.08520
C    -1.62834  -1.47942  -1.30296
C    -0.52721  -1.55883  -2.06384
C     0.82602  -1.57679  -1.41260
C     0.90727  -0.71562  -0.13339
C     1.98279  -1.18865   0.86504
N     2.92955  -2.01839   0.41163
O     1.98317  -0.76254   2.02754
C    -0.45942  -0.56477   0.61954
C    -0.62386   1.03560   0.59879
C    -1.56648   1.59232   1.54778
N    -2.30599   2.03615   2.32292
N     0.75105   1.53741   0.72898
C     1.25659   0.80396  -0.43021
C     2.65827   1.13575  -0.84889
O     0.31904   1.23950  -1.46459
C    -0.87646   1.40423  -0.86529
O    -1.88471   1.74735  -1.41900
H    -3.35128  -0.23740   0.53425
H    -3.49297  -2.01583   0.53398
H    -2.65375  -1.19683   1.87264
H    -2.63548  -1.54287  -1.72247
H    -0.60974  -1.67799  -3.14453
H     1.05308  -2.62206  -1.13789
H     1.61127  -1.26625  -2.11808
H     2.96042  -2.34242  -0.54717
H     3.68013  -2.29000   1.04029
H    -0.32977  -0.81595   1.67838
H     1.18097   1.13775   1.57155
H     2.97229   0.51180  -1.69649
H     2.70990   2.19348  -1.14058
H     3.34953   0.96925  -0.01161
