20
Generated by autodE on: 2022-06-17. E = -457.715324 Ha
C     3.12123  -0.60115  -0.04101
N     1.82911   0.06073   0.03083
C     1.76850   1.41903   0.36679
C     0.60853   2.08104   0.50142
C    -0.73907   1.43189   0.30351
C    -0.57467  -0.04223  -0.02860
C    -1.74208  -0.91070  -0.24793
N    -2.95616  -0.31363  -0.14415
O    -1.65526  -2.12732  -0.51286
C     0.65783  -0.61397  -0.13853
H     3.61702  -0.62141   0.94395
H     3.78542  -0.08405  -0.75137
H     2.98153  -1.63401  -0.38345
H     2.73770   1.90016   0.51046
H     0.64262   3.14116   0.76286
H    -1.36235   1.56551   1.21118
H    -1.30115   1.95806  -0.49556
H    -3.78761  -0.87495  -0.29197
H    -3.06627   0.67149   0.05993
H     0.74659  -1.67477  -0.37840
