13
Generated by autodE on: 2022-06-17. E = -453.089104 Ha
C    -3.02918   0.31820   0.21028
C    -1.57753   0.10965   0.08439
N    -0.61224   0.90255   0.47815
C     0.63547   0.33515   0.16267
C     1.87181   0.91979   0.44401
N     2.91729   1.39240   0.67107
C     0.38116  -0.89920  -0.47098
O     1.03455  -1.80373  -0.94915
O    -1.07257  -0.97511  -0.48391
H    -3.47105  -0.50083   0.79933
H    -3.23365   1.27896   0.69911
H    -3.49120   0.30336  -0.78943
H    -0.75760   1.79948   0.94024
