33
Generated by autodE on: 2022-06-17. E = -910.787179 Ha. Imaginary frequency = -418.0 cm-1
C    -2.87631  -1.17214   0.56119
N    -1.59591  -1.34124  -0.11856
C    -1.59584  -1.61192  -1.50433
C    -0.45167  -1.77068  -2.17675
C     0.88862  -1.69688  -1.49818
C     0.82504  -0.97293  -0.14713
C     1.92779  -1.22097   0.84683
N     2.97663  -1.95514   0.44262
O     1.87906  -0.71963   1.98423
C    -0.46313  -0.98064   0.49527
C    -0.54101   1.64011   0.69750
C    -1.34334   1.91394   1.80797
N    -2.03016   2.11174   2.73529
N     0.86887   1.58357   0.70445
C     1.19423   0.94044  -0.48064
C     2.58788   1.06922  -1.00753
O     0.19063   1.24711  -1.38405
C    -0.97652   1.53447  -0.65068
O    -2.06056   1.61118  -1.20795
H    -3.32955  -0.21067   0.27475
H    -3.55525  -1.98956   0.28378
H    -2.71709  -1.18445   1.64614
H    -2.58432  -1.69308  -1.95594
H    -0.48724  -2.00562  -3.24193
H     1.25805  -2.73186  -1.35974
H     1.61975  -1.21790  -2.16727
H     3.04740  -2.34226  -0.49018
H     3.75159  -2.09002   1.08476
H    -0.52389  -0.83719   1.57194
H     1.32908   1.19393   1.53350
H     2.78663   0.36068  -1.82012
H     2.72125   2.09047  -1.39578
H     3.31118   0.90678  -0.19837
