52
Generated by autodE on: 2022-06-06. E = -1996.619457 Ha
C    -3.22953   3.02183   2.22681
N    -2.74216   1.95187   1.37882
C    -1.49263   1.47376   1.50512
O    -0.70324   1.94649   2.32870
C    -1.02191   0.40341   0.46556
C    -2.16269  -0.06824  -0.43404
C    -2.14242   0.16673  -1.81366
C    -3.19276  -0.27066  -2.62794
C    -4.27739  -0.95328  -2.07377
C    -4.30504  -1.19712  -0.69622
C    -3.25839  -0.75825   0.11563
N     0.05407   1.01927  -0.31069
C     1.30048   0.97955   0.43937
C     2.52032   1.22757  -0.42203
C     2.48729   1.10030  -1.81683
C     3.64289   1.30686  -2.57743
C     4.84768   1.64003  -1.95230
C     4.88738   1.77638  -0.55998
C     3.73072   1.57896   0.19684
C     1.26204  -0.41642   1.13910
Cl    2.04769  -0.24417   2.76335
C     1.90080  -1.56872   0.32989
C     1.88810  -2.87733   1.14337
C     0.38404  -3.26525   1.15990
C    -0.28728  -2.13245   0.35417
C     0.79536  -1.85639  -0.70666
C    -0.28067  -0.80805   1.16694
Cl   -1.00372  -1.08258   2.80902
H    -3.17357   2.74217   3.29075
H    -4.27499   3.23026   1.96905
H    -2.63822   3.94115   2.08896
H    -3.36752   1.54078   0.69565
H    -1.29395   0.68829  -2.25495
H    -3.15824  -0.07622  -3.70260
H    -5.09708  -1.29572  -2.70974
H    -5.14478  -1.73516  -0.25023
H    -3.28680  -0.96494   1.18652
H    -0.18093   1.96111  -0.62027
H     1.30412   1.71876   1.25271
H     1.54856   0.83890  -2.30614
H     3.60025   1.20557  -3.66477
H     5.75082   1.79967  -2.54630
H     5.82247   2.04477  -0.06214
H     3.76423   1.68916   1.28289
H     2.88638  -1.29521  -0.06306
H     2.31015  -2.74794   2.14733
H     2.49261  -3.63276   0.62078
H     0.20988  -4.21654   0.63669
H    -0.02556  -3.36344   2.17193
H    -1.28195  -2.39402  -0.01684
H     1.01789  -2.75249  -1.30438
H     0.56761  -1.02026  -1.37309
