35
Generated by autodE on: 2022-07-27. E = -804.440260 Ha
C    -2.86221   1.34906   3.50120
N    -2.51050   0.74273   2.23630
C    -1.20653   0.58730   1.86724
O    -0.29891   0.96154   2.64673
C    -0.92904   0.01389   0.55882
N     0.35362   0.05375   0.07300
C     1.49801   0.55235   0.51686
C     2.73917   0.43472  -0.21381
C     2.88476  -0.25677  -1.44077
C     4.11882  -0.30933  -2.08487
C     5.24287   0.31593  -1.52944
C     5.11662   0.99893  -0.31405
C     3.88532   1.05799   0.33482
C    -1.93068  -0.57088  -0.34531
C    -1.85005  -0.36719  -1.74342
C    -2.76414  -0.95775  -2.61701
C    -3.80355  -1.75336  -2.12538
C    -3.90501  -1.96134  -0.74536
C    -2.98137  -1.39024   0.13002
H    -2.55158   2.40710   3.55863
H    -2.38822   0.82003   4.34296
H    -3.95143   1.29919   3.62689
H    -3.24747   0.54038   1.57231
H     0.42566  -0.41456  -0.83272
H     1.47401   1.06667   1.47235
H     2.03564  -0.76603  -1.90436
H     4.20648  -0.84859  -3.03119
H     6.20767   0.26806  -2.03915
H     5.98554   1.48974   0.13110
H     3.79091   1.59467   1.28204
H    -1.07440   0.28412  -2.15396
H    -2.67293  -0.77674  -3.69095
H    -4.52561  -2.20611  -2.80852
H    -4.70179  -2.59283  -0.34432
H    -3.05793  -1.60520   1.19644
