17
Generated by autodE on: 2022-06-06. E = -1192.119830 Ha
Cl    1.94118   1.07875  -0.61370
C     0.73581  -0.06877  -0.14994
C    -0.30506   0.12278   0.67867
Cl   -0.73418   1.57114   1.51727
C    -1.22198  -1.08108   0.54578
C    -1.87449  -0.96101  -0.86990
C    -0.66881  -1.18252  -1.82953
C     0.52600  -1.40275  -0.84566
C    -0.17245  -2.18328   0.28809
H    -1.92499  -1.22411   1.37497
H    -2.36155   0.01497  -1.00607
H    -2.63868  -1.74192  -0.99707
H    -0.48604  -0.32936  -2.49814
H    -0.80998  -2.07777  -2.45288
H     1.42626  -1.84097  -1.29257
H    -0.61985  -3.12806  -0.05555
H     0.48182  -2.36644   1.15227
