52
Generated by autodE on: 2022-06-06. E = -1996.558063 Ha. Imaginary frequency = -290.0 cm-1
C    -3.21974   2.43596   2.91861
N    -2.82020   1.81919   1.67232
C    -1.51930   1.78663   1.29655
O    -0.67228   2.43912   1.93454
C    -1.17318   0.98158   0.10115
C    -2.21731   0.39297  -0.76930
C    -2.26838   0.66768  -2.15152
C    -3.23061   0.07256  -2.96975
C    -4.17785  -0.80176  -2.42920
C    -4.14505  -1.08076  -1.05942
C    -3.17538  -0.49922  -0.24159
N     0.02831   1.24469  -0.51085
C     1.21432   1.41135   0.10242
C     2.46959   1.40101  -0.63758
C     2.60179   0.91188  -1.95457
C     3.85074   0.86452  -2.57305
C     4.99694   1.29297  -1.89324
C     4.88062   1.77666  -0.58533
C     3.63278   1.83422   0.03372
C     1.18224  -0.52768   1.35964
Cl    2.07971   0.06042   2.75872
C     1.84223  -1.58377   0.48048
C     1.84991  -2.90213   1.31200
C     0.34094  -3.27572   1.39056
C    -0.35032  -2.12492   0.59369
C     0.69808  -1.88217  -0.50760
C    -0.17566  -0.86781   1.43649
Cl   -1.09362  -0.75809   2.93472
H    -3.02639   3.52083   2.91761
H    -2.67549   1.99870   3.77195
H    -4.29495   2.27314   3.06482
H    -3.50781   1.29008   1.15157
H    -1.56460   1.37399  -2.59812
H    -3.24707   0.30799  -4.03661
H    -4.93412  -1.26171  -3.06916
H    -4.87057  -1.77084  -0.62215
H    -3.14085  -0.76438   0.81569
H     0.07857   0.90131  -1.46741
H     1.18365   1.91316   1.06146
H     1.73210   0.55338  -2.51007
H     3.93083   0.48393  -3.59407
H     5.97364   1.24987  -2.38053
H     5.76850   2.11477  -0.04562
H     3.54490   2.20821   1.05541
H     2.81139  -1.29589   0.05581
H     2.30786  -2.74960   2.29927
H     2.43053  -3.67431   0.78535
H     0.13670  -4.23944   0.90037
H    -0.03606  -3.33437   2.42095
H    -1.37459  -2.34138   0.27146
H     0.89024  -2.78600  -1.10421
H     0.45465  -1.06083  -1.18658
