19
Generated by autodE on: 2022-05-29. E = -634.779389 Ha
C     3.63823   0.18831  -0.54531
O     2.30666   0.34378  -0.03783
C     1.38566  -0.52048  -0.49327
O     1.63684  -1.41117  -1.28983
C     0.06175  -0.28221   0.06144
C    -0.44570   0.72318   0.79449
F     0.13367   1.80110   1.27424
C    -1.95790   0.47396   0.91910
C    -2.55456   0.69734  -0.49068
C    -2.08236  -0.31615  -1.22162
C    -1.19322  -1.13121  -0.25485
O    -1.93217  -0.96115   0.97580
H     4.03675  -0.80489  -0.29124
H     3.65426   0.31754  -1.63750
H     4.23769   0.96980  -0.06399
H    -2.45975   0.93533   1.77601
H    -3.17615   1.54416  -0.77768
H    -2.21565  -0.53368  -2.28062
H    -1.00983  -2.18357  -0.49232
