17
Generated by autodE on: 2022-05-29. E = -401.275023 Ha
C     3.31664  -0.33239  -0.41287
C     2.17033  -0.08592  -1.29697
O     0.97329  -0.00655  -0.82995
C     0.56677  -0.12018   0.44302
C    -0.83593   0.00537   0.72078
O    -1.26008  -0.08783   1.89717
N    -1.67450   0.22537  -0.33724
C    -3.10279   0.38517  -0.20067
H     4.25151  -0.37104  -0.98556
H     3.39127   0.45899   0.36062
H     3.18410  -1.28385   0.14146
H     2.22456   0.04564  -2.37873
H     1.29651  -0.29847   1.22908
H    -1.26561   0.29851  -1.26160
H    -3.65572  -0.37094  -0.78342
H    -3.36886   0.26860   0.85680
H    -3.43869   1.38184  -0.53484
