36
Generated by autodE on: 2022-05-29. E = -1036.063913 Ha. Imaginary frequency = -190.6 cm-1
C    -1.09009  -1.23664  -3.42123
N    -1.33663  -0.58276  -2.15675
C    -1.06667   0.72981  -1.91277
O    -0.64079   1.50768  -2.79304
C    -1.35379   1.21706  -0.57621
O    -1.85128   0.32972   0.29189
C    -2.34789   0.60277   1.46064
C    -2.96236   1.92174   1.74594
C    -0.16394   1.15414   2.49288
C     0.59085  -0.15692   2.81114
O     1.95370   0.26604   2.59644
C     1.72307   0.73868   1.24114
C     1.17644  -0.55135   0.60393
C     1.41410  -1.02826  -0.75057
O     1.13138  -2.14066  -1.16490
O     2.03604  -0.08745  -1.48212
C     2.38667  -0.38789  -2.83815
C     0.44355  -1.08085   1.59774
F    -0.35293  -2.13183   1.58632
C     0.54882   1.71530   1.48245
H    -1.95618  -1.85304  -3.70952
H    -0.93511  -0.47396  -4.19417
H    -0.20235  -1.88802  -3.38322
H    -1.58070  -1.16446  -1.36258
H    -1.54375   2.27651  -0.42309
H    -2.61587  -0.29784   2.01599
H    -2.26301   2.76492   1.64211
H    -3.78710   2.09419   1.02568
H    -3.37621   1.92784   2.76286
H    -0.87111   1.61183   3.17757
H     0.42652  -0.61360   3.79264
H     2.62841   1.15250   0.78885
H     3.23679   0.25966  -3.08599
H     2.66821  -1.44355  -2.94647
H     1.54124  -0.15395  -3.49864
H     0.48124   2.71421   1.06055
