55
Generated by autodE on: 2022-06-24. E = -1265.274232 Ha
C     4.07040   2.47069  -1.38093
N     3.37767   1.37121  -0.74116
C     2.07006   1.43186  -0.46924
O     1.38672   2.43030  -0.71936
C     1.42673   0.16518   0.18453
C     2.38255  -0.39937   1.25911
O     3.55707  -0.69282   0.97574
N     1.86142  -0.56410   2.47425
C     2.60493  -1.22182   3.53036
O     0.22635   0.58588   0.80181
C    -0.95803   0.03951   0.24019
C    -1.50332  -0.95092   1.30193
O    -0.98661  -1.10874   2.39198
O    -2.62319  -1.55666   0.94330
C    -3.23022  -2.44048   1.90022
C    -2.00533   1.15989   0.13270
C    -1.69779   2.44825   0.58841
C    -2.63719   3.48043   0.49568
C    -3.89910   3.23997  -0.05065
C    -4.21572   1.95436  -0.50178
C    -3.28071   0.92245  -0.40657
C    -0.50524  -0.59823  -1.14105
C    -1.31261  -1.81963  -1.59970
C    -0.62575   0.45037  -2.26185
C     1.00674  -0.96934  -0.83995
C     1.88518  -1.00429  -2.09311
C     1.11520  -2.35822  -0.17734
H     5.11735   2.18552  -1.54202
H     4.04188   3.38286  -0.76264
H     3.61334   2.70974  -2.35421
H     3.88140   0.55239  -0.39664
H     0.84657  -0.46753   2.55864
H     2.06261  -1.10285   4.47665
H     3.60407  -0.77518   3.63214
H     2.73239  -2.29887   3.32762
H    -2.54419  -3.26322   2.14562
H    -4.13405  -2.82785   1.41718
H    -3.48944  -1.88931   2.81492
H    -0.71319   2.64649   1.00516
H    -2.37513   4.47862   0.85485
H    -4.63259   4.04640  -0.12433
H    -5.19878   1.75010  -0.93263
H    -3.55018  -0.07112  -0.76040
H    -0.85206  -2.22239  -2.51480
H    -1.36522  -2.62569  -0.86170
H    -2.34073  -1.52652  -1.85291
H    -0.22025   0.04194  -3.19691
H    -0.10170   1.38308  -2.02891
H    -1.68101   0.68830  -2.44489
H     1.49987  -1.76288  -2.79111
H     1.93066  -0.04584  -2.62273
H     2.91160  -1.29043  -1.82170
H     2.15852  -2.57023   0.08862
H     0.79832  -3.13639  -0.88286
H     0.50984  -2.45474   0.73246
