18
Generated by autodE on: 2022-06-24. E = -235.968069 Ha
C     1.73416   0.17279   0.92126
C     0.66313   0.03088  -0.13347
C     1.25147  -0.03449  -1.52237
C    -0.66313  -0.03081   0.13347
C    -1.73413  -0.17314  -0.92124
C    -1.25152   0.03480   1.52235
H     2.34138   1.07622   0.73204
H     2.43621  -0.67902   0.87212
H     1.35350   0.23403   1.94781
H     1.96035  -0.87845  -1.59955
H     1.84115   0.87594  -1.73263
H     0.51012  -0.14540  -2.32261
H    -2.34152  -1.07631  -0.73137
H    -1.35337  -0.23535  -1.94770
H    -2.43599   0.67885  -0.87286
H    -1.96140   0.87797   1.59881
H    -1.84012  -0.87616   1.73336
H    -0.51030   0.14729   2.32249
