37
Generated by autodE on: 2022-06-24. E = -1029.218311 Ha
C    -4.17162  -1.46418   1.44899
N    -2.87234  -0.97654   1.03654
C    -2.61867   0.34883   0.92937
O    -3.49783   1.19777   1.20636
C    -1.27679   0.74200   0.50775
O    -0.50168  -0.30593   0.16170
C     0.76195  -0.40752  -0.10394
C     1.69678   0.65351   0.39176
O     1.60040   1.10499   1.51547
O     2.67761   0.92195  -0.45769
C     3.64264   1.89920  -0.03241
C     1.18547  -1.67810  -0.65076
C     0.21062  -2.58561  -1.13387
C     0.59131  -3.82551  -1.63364
C     1.94487  -4.18601  -1.67276
C     2.91695  -3.29519  -1.20422
C     2.54921  -2.05159  -0.69754
C    -0.89048   2.07457   0.06038
O     0.14188   2.24557  -0.62697
N    -1.71560   3.09165   0.38934
C    -1.53499   4.41472  -0.16704
H    -4.96553  -1.14363   0.75501
H    -4.14621  -2.56059   1.46939
H    -4.43903  -1.09961   2.45416
H    -2.13632  -1.64030   0.82367
H     4.15065   1.56379   0.88261
H     4.35915   1.99119  -0.85600
H     3.14179   2.86028   0.15091
H    -0.84169  -2.29886  -1.12098
H    -0.16958  -4.51480  -2.00590
H     2.24080  -5.15841  -2.07251
H     3.97251  -3.57365  -1.23039
H     3.31733  -1.37354  -0.32815
H    -2.60985   2.80817   0.79916
H    -1.79852   4.46186  -1.23859
H    -0.48713   4.73259  -0.06635
H    -2.17240   5.12265   0.37825
