37
Generated by autodE on: 2022-07-27. E = -1029.218296 Ha
C     3.67599   1.51414  -2.40897
N     2.55011   0.99503  -1.66158
C     2.72483   0.14264  -0.62464
O     3.87015  -0.24327  -0.29330
C     1.52562  -0.32527   0.06555
O     0.39820   0.27513  -0.36595
C    -0.85653   0.04232  -0.14435
C    -1.26863  -1.31459   0.33998
O    -0.79148  -2.32565  -0.13532
O    -2.26979  -1.27741   1.20706
C    -2.75295  -2.54620   1.68043
C    -1.77446   1.04945  -0.63098
C    -1.27209   2.31287  -1.02949
C    -2.13054   3.28409  -1.53135
C    -3.50357   3.02589  -1.63955
C    -4.01190   1.78373  -1.24382
C    -3.16273   0.80048  -0.74308
C     1.50569  -1.00855   1.35316
O     0.46358  -1.03773   2.04637
N     2.66502  -1.56470   1.76572
C     2.81181  -2.09355   3.10410
H     4.35930   2.09304  -1.76645
H     3.29923   2.17231  -3.20145
H     4.26022   0.70311  -2.87324
H     1.61047   1.27694  -1.91667
H    -3.56668  -2.31626   2.37686
H    -3.12467  -3.15201   0.84223
H    -1.94422  -3.08195   2.19713
H    -0.20613   2.52186  -0.93078
H    -1.73078   4.25471  -1.83268
H    -4.17588   3.79397  -2.02811
H    -5.08075   1.57724  -1.32978
H    -3.57299  -0.16428  -0.44789
H     3.48432  -1.32587   1.20029
H     1.96433  -2.74903   3.35144
H     2.85661  -1.29881   3.86982
H     3.73838  -2.67953   3.15804
