28
Generated by autodE on: 2022-07-27. E = -686.897718 Ha
C     3.38589  -2.38672   0.16811
N     2.13049  -1.69766  -0.05864
C     1.61998  -0.85490   0.89342
O     2.21072  -0.70453   1.97704
C     0.36157  -0.18914   0.54947
N    -0.37804  -0.78113  -0.47799
C    -1.33368  -0.30842  -1.23797
C    -2.19520  -1.24863  -2.00531
C    -1.58319   1.15969  -1.44001
C    -0.40194   2.08132  -1.58483
O    -2.71927   1.52284  -1.71095
C    -0.27969   0.83103   1.32553
C     0.32794   1.29728   2.62763
O    -1.36462   1.33656   0.96031
H     4.24360  -1.69272   0.21018
H     3.55224  -3.10030  -0.64913
H     3.35535  -2.93966   1.11767
H     1.84626  -1.57757  -1.02472
H    -0.22030  -1.79080  -0.57313
H    -3.23720  -1.14179  -1.66069
H    -1.88059  -2.29234  -1.86918
H    -2.18791  -0.99307  -3.07677
H    -0.27484   2.26763  -2.66467
H     0.53307   1.67082  -1.18475
H    -0.62716   3.04013  -1.09775
H    -0.30339   2.09988   3.03158
H     1.35003   1.67006   2.46727
H     0.40339   0.47500   3.35280
