51
Generated by autodE on: 2022-06-02. E = -1187.731018 Ha. Imaginary frequency = -303.9 cm-1
C     4.58049  -1.58714  -0.28420
N     3.42439  -0.75378  -0.55600
C     2.68242  -0.24019   0.45589
O     2.97504  -0.45538   1.63950
C     1.48425   0.55951   0.06710
C     1.18236   1.81941   0.73386
C     1.84091   2.15597   2.04905
O     0.37968   2.62372   0.24069
N     0.94220   0.26794  -1.17412
C    -0.29820   0.57523  -1.61343
C    -0.85853  -0.27253  -2.72323
C    -0.72289   2.02267  -1.78512
C     0.28457   2.91021  -2.47960
O    -1.88968   2.36071  -1.67574
C    -1.35796  -0.30550   0.29492
C    -2.51953   0.59380   0.34933
O    -3.59677   0.34467  -0.17630
O    -2.32194   1.69463   1.09498
C    -3.39364   2.63709   1.15528
C    -1.61993  -1.78593  -0.02489
C    -2.34664  -2.35848   1.23085
C    -1.24063  -2.31271   2.32571
C     0.00066  -1.76071   1.54885
C    -0.22596  -2.41057   0.17052
C    -0.34377  -0.31043   1.27663
H     5.39620  -1.01694   0.19116
H     4.94592  -2.00521  -1.23035
H     4.30775  -2.41311   0.38831
H     3.32020  -0.38114  -1.49363
H     1.43230   3.11301   2.39820
H     2.93004   2.24777   1.91529
H     1.67690   1.37529   2.80195
H     1.26352  -0.63350  -1.52582
H    -1.95572  -0.24204  -2.67343
H    -0.52121  -1.31476  -2.64780
H    -0.56057   0.12663  -3.70835
H     0.16216   2.75398  -3.56564
H     1.32092   2.67711  -2.21252
H     0.05484   3.96049  -2.25403
H    -3.65076   2.99443   0.14832
H    -3.02940   3.47109   1.76737
H    -4.28375   2.18899   1.62162
H    -2.13595  -1.98506  -0.97022
H    -2.66967  -3.39202   1.03507
H    -3.23972  -1.77453   1.49222
H    -1.50613  -1.67149   3.17884
H    -1.01528  -3.31613   2.71760
H     0.96094  -1.93451   2.04615
H     0.51458  -2.13643  -0.58813
H    -0.26424  -3.50857   0.22522
H    -0.30844   0.42514   2.07873
