14
Generated by autodE on: 2022-06-20. E = -270.683221 Ha
C    -1.12323  -1.08574   0.29015
C    -0.80265   0.32739  -0.10489
C    -1.97304   1.21814  -0.37832
C     0.46717   0.80447  -0.21940
C     1.68662   0.04625   0.01605
O     1.76555  -1.13441   0.34778
H    -2.20907  -1.24704   0.34111
H    -0.67720  -1.33356   1.26615
H    -0.69076  -1.80089  -0.42787
H    -1.67439   2.23607  -0.66422
H    -2.62273   1.26820   0.51322
H    -2.59462   0.78409  -1.18130
H     0.61487   1.84795  -0.51271
H     2.62394   0.63600  -0.13120
