27
Generated by autodE on: 2022-06-20. E = -757.847379 Ha
C    -2.83118  -3.30545  -0.47631
N    -1.71550  -2.38786  -0.34585
C    -1.90859  -1.08239  -0.12208
O    -3.03109  -0.56228  -0.02197
C    -0.68823  -0.21787  -0.01631
N    -1.00895   1.04795   0.10761
C    -0.28991   2.19938   0.30813
C     1.09649   2.21646   0.56202
N     2.23933   2.29702   0.79114
C    -0.99819   3.41927   0.31514
N    -1.57176   4.43764   0.32203
C     0.69367  -0.71232  -0.10767
C     1.18357  -1.64248   0.82644
C     2.49247  -2.11467   0.71949
C     3.31574  -1.67336  -0.32125
C     2.82906  -0.75634  -1.25859
C     1.52524  -0.27406  -1.15441
H    -2.44049  -4.32454  -0.57766
H    -3.44145  -3.06606  -1.36179
H    -3.48253  -3.25665   0.40953
H    -0.76909  -2.74118  -0.44713
H    -2.03763   1.16689   0.07737
H     0.54188  -1.98002   1.64251
H     2.87177  -2.82789   1.45439
H     4.33919  -2.04624  -0.40321
H     3.46865  -0.41406  -2.07494
H     1.14339   0.44232  -1.88450
