43
Generated by autodE on: 2022-06-20. E = -1053.678354 Ha
C     1.13995  -2.41570   0.96737
C     0.49279  -1.34554   1.44925
C    -0.14910  -1.34787   2.80994
C     0.34574  -0.05950   0.65791
C     1.33898   0.15697  -0.50059
C     2.72108   0.51699  -0.05468
C     3.86965  -0.07788  -0.42550
C     3.96705  -1.23110  -1.38608
C     5.18800   0.38660   0.13215
C     0.59887   1.23080  -1.32042
C     0.79819   2.60041  -0.80008
N     0.93146   3.67590  -0.38633
O    -0.77767   0.88008  -1.24246
C    -1.03241   0.13378  -0.04873
C    -1.64146  -1.22833  -0.38853
O    -2.43440  -1.78796   0.33901
O    -1.14816  -1.73546  -1.50685
C    -1.53523  -3.08324  -1.83226
C    -2.03949   0.94213   0.78696
O    -1.82319   1.38371   1.89308
O    -3.16463   1.12709   0.10875
C    -4.19090   1.90535   0.74943
H     1.61216  -2.43001  -0.01635
H     1.22004  -3.32875   1.56435
H     0.02685  -2.29805   3.33410
H     0.24541  -0.52358   3.42748
H    -1.23663  -1.18989   2.73297
H     0.44268   0.78184   1.36194
H     1.34553  -0.73073  -1.14213
H     2.77497   1.34637   0.66017
H     4.65892  -0.98285  -2.20907
H     3.00424  -1.52093  -1.82584
H     4.39372  -2.11353  -0.87839
H     5.86363   0.70690  -0.68026
H     5.70181  -0.44045   0.65304
H     5.06894   1.22214   0.83736
H     0.90044   1.22456  -2.37755
H    -1.21797  -3.76570  -1.03109
H    -2.62427  -3.14460  -1.96454
H    -1.02064  -3.32466  -2.76869
H    -5.02877   1.93638   0.04418
H    -3.82403   2.92100   0.95456
H    -4.49784   1.42560   1.68948
