23
Generated by autodE on: 2022-06-20. E = -351.521381 Ha
C    -3.05888   0.35717   2.19443
C    -2.29609   0.48700   1.08667
C    -2.81892   1.17487  -0.14854
C    -0.93516  -0.04586   1.07095
C    -0.07213   0.01924   0.02605
C     1.26842  -0.52880   0.06387
C     2.19018  -0.50550  -0.93180
C     3.54623  -1.12316  -0.73775
C     1.96748   0.11483  -2.28194
H    -2.67629  -0.14302   3.08951
H    -4.08029   0.74587   2.23347
H    -2.19277   2.04241  -0.41553
H    -2.80282   0.49659  -1.01783
H    -3.85047   1.52534  -0.00300
H    -0.60283  -0.53768   1.99313
H    -0.39618   0.50824  -0.89659
H     1.55480  -1.01269   1.00556
H     3.66330  -1.56350   0.26334
H     3.72833  -1.91178  -1.48994
H     4.34334  -0.37222  -0.88462
H     2.72128   0.89982  -2.46987
H     0.97214   0.56055  -2.40565
H     2.10753  -0.63930  -3.07651
