20
Generated by autodE on: 2022-06-20. E = -702.061395 Ha
C    -2.31289  -3.06262  -0.30217
O    -1.11147  -2.28513  -0.19152
C    -1.26557  -0.96323  -0.11869
O    -2.35957  -0.40982  -0.14382
C    -0.01670  -0.21897  -0.00789
O    -0.06044   1.10414   0.06296
C    -1.01377   1.96964   0.06265
C    -0.62115   3.32300   0.16076
N    -0.34649   4.45355   0.24055
C     1.34478  -0.76910   0.03057
O     1.61546  -1.95619  -0.01097
O     2.27349   0.19588   0.11758
C     3.63801  -0.24053   0.15673
H    -2.86501  -2.79180  -1.21376
H    -1.98694  -4.10770  -0.35211
H    -2.95596  -2.90543   0.57584
H    -2.05645   1.66113  -0.00788
H     4.24295   0.67128   0.22222
H     3.81658  -0.87783   1.03514
H     3.89224  -0.79936  -0.75583
