20
Generated by autodE on: 2022-07-27. E = -702.053047 Ha
C    -1.95105  -3.55991   0.20901
O    -1.00794  -2.51318  -0.05334
C    -1.30532  -1.30640   0.45137
O    -2.30503  -1.08232   1.11142
C    -0.29158  -0.29761   0.11622
O     0.69366  -0.75868  -0.63117
C     1.81791  -0.45642  -1.16804
C     2.54273   0.75424  -1.06776
N     3.30110   1.64123  -1.06693
C    -0.41772   1.10712   0.50753
O    -1.20176   1.54178   1.33084
O     0.43271   1.86914  -0.18652
C     0.49515   3.26459   0.12981
H    -1.54562  -4.45722  -0.27274
H    -2.05595  -3.72523   1.29129
H    -2.93398  -3.31193  -0.21786
H     2.27596  -1.28185  -1.71869
H    -0.45908   3.75319  -0.11388
H     1.30355   3.67480  -0.48597
H     0.71997   3.40492   1.19682
