43
Generated by autodE on: 2022-06-20. E = -1053.588263 Ha. Imaginary frequency = -241.0 cm-1
C     0.73269  -3.16621   0.14606
C     0.25927  -2.36781   1.12561
C    -0.63461  -2.90077   2.21736
C     0.55381  -0.93451   1.19426
C     1.64145  -0.31538   0.58133
C     1.99914   1.04662   0.90098
C     3.11634   1.70601   0.50030
C     4.21751   1.08412  -0.30864
C     3.33007   3.14119   0.88316
C     0.67205  -0.22078  -1.73669
C     1.17783   1.07622  -1.97601
N     1.76160   2.05447  -2.23130
O    -0.55429  -0.54487  -1.36902
C    -1.30641  -0.18524  -0.32661
C    -2.38265  -1.13831  -0.01575
O    -3.22924  -0.96678   0.84684
O    -2.31911  -2.24033  -0.77307
C    -3.28039  -3.26486  -0.49152
C    -1.35255   1.18237   0.21136
O    -1.85137   1.49822   1.27717
O    -0.74900   2.04414  -0.60977
C    -0.53683   3.38387  -0.15003
H     1.36983  -2.79202  -0.65824
H     0.48220  -4.23010   0.12560
H    -0.14321  -2.79811   3.20003
H    -0.87836  -3.96076   2.06068
H    -1.57249  -2.32775   2.27780
H     0.02136  -0.37053   1.96417
H     2.36906  -0.94258   0.06492
H     1.27363   1.59871   1.50687
H     4.49622   1.74214  -1.14692
H     3.95921   0.09839  -0.71643
H     5.12233   0.97054   0.31534
H     3.39316   3.77115  -0.02121
H     4.28905   3.26793   1.41614
H     2.51965   3.52599   1.51885
H     1.14510  -1.01422  -2.32176
H    -3.07536  -4.07200  -1.20413
H    -4.30313  -2.88596  -0.63086
H    -3.16329  -3.63082   0.53848
H    -1.47787   3.95068  -0.19908
H     0.20642   3.81760  -0.82902
H    -0.15929   3.38373   0.88095
