29
Generated by autodE on: 2022-06-17. E = -895.157558 Ha
C    -3.17118   1.53510  -0.63488
O    -2.36877   0.37447  -0.91134
C    -1.49674   0.01030   0.01753
O    -1.37608   0.55505   1.09521
C    -0.66010  -1.20315  -0.43995
C    -1.52298  -2.45241  -0.42494
O    -0.18853  -0.98731  -1.77515
C     0.91766  -0.09801  -1.73150
C     0.44505   1.29032  -1.94178
N    -0.00098   2.33799  -2.16118
C     1.61899  -0.35669  -0.36004
C     2.06222   0.87732   0.39731
O     2.53950   1.83701  -0.19025
C     1.96075   0.86141   1.86905
C     1.25060  -0.06439   2.53885
C     0.52129  -1.16280   1.86941
O    -0.13058  -1.96554   2.52208
C     0.65529  -1.31712   0.36737
H    -2.52452   2.41713  -0.52419
H    -3.75757   1.38475   0.28221
H    -3.83393   1.65457  -1.49898
H    -0.93401  -3.30266  -0.79715
H    -2.40617  -2.31211  -1.06319
H    -1.84722  -2.66384   0.60291
H     1.57773  -0.34075  -2.57503
H     2.56145  -0.88587  -0.56710
H     2.45982   1.68477   2.38614
H     1.15730  -0.03381   3.62750
H     1.00519  -2.34762   0.21546
