17
Generated by autodE on: 2022-07-27. E = -513.409347 Ha
C    -1.11025   2.04594   1.05468
O    -0.45908   0.92545   0.44834
C    -0.81908  -0.29671   0.83569
O    -1.66838  -0.52941   1.68414
C    -0.09115  -1.35676   0.14269
C    -0.36944  -2.78010   0.47447
O     0.81141  -1.14782  -0.76807
C     1.45649  -0.23311  -1.45114
C     1.33399   1.16455  -1.39601
N     1.37274   2.33125  -1.49308
H    -0.92696   2.05468   2.13899
H    -2.19279   2.00866   0.86464
H    -0.67077   2.93414   0.58600
H     0.26255  -3.43941  -0.13428
H    -1.42912  -3.02546   0.29047
H    -0.17534  -2.97894   1.54209
H     2.17333  -0.66431  -2.15058
