29
Generated by autodE on: 2022-06-17. E = -895.063945 Ha. Imaginary frequency = -148.9 cm-1
C    -2.07282   2.00559   0.13226
O    -1.44205   0.86992  -0.47352
C    -1.69868  -0.33438   0.01708
O    -2.45063  -0.56269   0.94855
C    -0.96523  -1.40676  -0.68351
C    -1.35173  -2.81765  -0.42800
O    -0.21050  -1.20000  -1.73408
C     0.54428  -0.24891  -2.24205
C     0.33635   1.14679  -2.25657
N     0.34268   2.30574  -2.40509
C     1.96639  -0.35720  -0.04362
C     1.92966   1.05939   0.37033
O     2.56064   1.92902  -0.22785
C     1.10154   1.40420   1.55200
C     0.46278   0.46144   2.26739
C     0.53421  -0.96991   1.88903
O     0.00765  -1.83733   2.58707
C     1.26379  -1.30317   0.65365
H    -1.87006   2.02416   1.21113
H    -3.15742   1.96922  -0.04413
H    -1.63352   2.88195  -0.35743
H    -0.70589  -3.49675  -0.99834
H    -2.40560  -2.99286  -0.70513
H    -1.25768  -3.03566   0.64769
H     1.22896  -0.63833  -2.99802
H     2.68936  -0.62437  -0.81415
H     1.05332   2.46437   1.81102
H    -0.13607   0.70111   3.14881
H     1.36239  -2.36554   0.42431
