42
Generated by autodE on: 2022-06-18. E = -994.773940 Ha
C    -3.92616  -1.63889  -1.13096
N    -2.62006  -1.06117  -0.90072
C    -2.09531  -0.84085   0.30886
O    -2.65541  -1.09206   1.38339
C    -0.66257  -0.25912   0.30242
C    -0.60116   0.68592   1.52606
O     0.15624   0.57293   2.46637
O    -1.49984   1.66481   1.43380
C    -1.53822   2.61912   2.50442
C     0.41631  -1.38305   0.45553
C    -0.05638  -2.70039   1.05475
C     1.04702  -1.50570  -0.94130
C     2.43242  -2.13730  -0.94533
C     0.95495  -0.05771  -1.46569
C     2.10449   0.80326  -0.95411
O     2.09387   1.42240   0.09218
O     3.14655   0.78984  -1.78984
C     4.32481   1.49543  -1.37106
N    -0.33832   0.37119  -0.97989
C    -0.77607   1.71185  -1.31583
H    -4.40920  -1.82078  -0.16289
H    -4.55798  -0.95766  -1.72172
H    -3.84703  -2.59478  -1.67251
H    -2.03282  -0.76820  -1.67989
H    -2.31991   3.33988   2.23893
H    -1.78607   2.11888   3.45161
H    -0.56771   3.12653   2.60017
H     1.18041  -0.96492   1.12534
H    -0.50103  -2.54888   2.04820
H    -0.80444  -3.19558   0.41611
H     0.79676  -3.38630   1.16682
H     0.37597  -2.09930  -1.58361
H     3.11898  -1.61162  -0.26198
H     2.87489  -2.12215  -1.95284
H     2.37644  -3.18635  -0.61821
H     0.98749  -0.02685  -2.56545
H     4.10209   2.56204  -1.22479
H     4.71128   1.07062  -0.43323
H     5.05773   1.36746  -2.17581
H    -0.60689   1.87250  -2.39216
H    -0.24552   2.50981  -0.76430
H    -1.85137   1.82234  -1.12301
