12
Generated by autodE on: 2022-06-18. E = -157.300303 Ha
C    -1.94172  -0.11068  -0.27394
C    -0.52006  -0.41185   0.09234
C     0.52006   0.41186  -0.09232
C     1.94172   0.11068   0.27393
H    -2.60095  -0.15436   0.61131
H    -2.04359   0.88774  -0.72767
H    -2.33753  -0.85464  -0.98804
H    -0.33492  -1.39363   0.55042
H     0.33491   1.39365  -0.55038
H     2.04356  -0.88763   0.72792
H     2.33767   0.85481   0.98777
H     2.60086   0.15404  -0.61141
