42
Generated by autodE on: 2022-06-18. E = -994.674593 Ha. Imaginary frequency = -340.8 cm-1
C    -4.03121  -1.10742   1.67516
N    -2.68334  -0.67821   1.36378
C    -2.35004  -0.29034   0.10935
O    -3.20610  -0.22612  -0.78080
C    -0.88586  -0.00178  -0.08481
C    -0.32350   0.65307   1.16046
O     0.01106   0.07491   2.17696
O    -0.45981   1.97885   1.07969
C    -0.02129   2.73939   2.21471
C     0.01739  -2.08509  -0.04656
C    -1.01261  -2.86896  -0.82121
C     1.29144  -1.90908  -0.57183
C     2.50909  -1.81590   0.30358
C     0.94968   0.32817  -1.58466
C     2.04271   0.82686  -0.77810
O     2.03666   1.21409   0.38289
O     3.18618   0.81156  -1.51192
C     4.36662   1.28395  -0.85810
N    -0.38846   0.35944  -1.31519
C    -1.23519   0.27974  -2.52765
H    -4.10101  -1.29621   2.75358
H    -4.76236  -0.33172   1.40278
H    -4.30194  -2.03101   1.13585
H    -1.94865  -0.84027   2.04486
H    -0.18294   3.79165   1.95386
H    -0.60874   2.47280   3.10510
H     1.04443   2.55261   2.40504
H    -0.07138  -2.11067   1.04333
H    -2.04921  -2.66258  -0.52093
H    -0.92321  -2.68915  -1.90355
H    -0.84739  -3.94923  -0.65860
H     1.46051  -2.23620  -1.60279
H     2.31868  -1.22141   1.20869
H     3.37118  -1.38451  -0.22396
H     2.81293  -2.82714   0.63110
H     1.18703   0.29109  -2.64544
H     4.25385   2.33820  -0.56344
H     4.59183   0.68262   0.03477
H     5.17798   1.18506  -1.58934
H    -2.04969   1.00605  -2.45918
H    -1.66395  -0.71995  -2.65172
H    -0.60621   0.52064  -3.38961
