55
Generated by autodE on: 2022-06-11. E = -6504.425656 Ha
C   -11.42918  -3.79552  10.08390
N   -10.26939  -3.41261   9.30368
C    -9.26014  -4.26233   9.09578
O    -9.14987  -5.36674   9.63312
C    -8.15112  -3.78445   8.16002
C    -8.20781  -2.34275   7.55360
O    -9.16012  -1.62831   7.35144
O    -6.94415  -2.02566   7.25519
C    -6.13721  -3.25265   7.67414
C    -4.69838  -2.77239   7.96076
C    -4.18154  -1.59660   7.19800
O    -4.08976  -3.30871   8.86093
C    -6.52636  -4.32779   6.61427
C    -7.81534  -4.63297   6.91138
C    -8.80268  -5.60151   6.26535
C   -10.17902  -5.43839   6.77920
N   -11.30237  -5.39558   7.06633
C    -9.04493  -5.34236   4.75322
C    -9.08765  -4.02164   4.28713
C    -9.35088  -3.75236   2.94299
C    -9.59298  -4.80020   2.05130
C    -9.58885  -6.11730   2.51945
C    -9.32619  -6.38837   3.86423
C    -8.37861  -7.06171   6.67969
C    -6.88986  -7.40806   6.65359
C    -6.14439  -7.31895   5.32228
C    -6.05347  -5.95322   4.62914
C    -5.65279  -4.75291   5.47437
Br   -5.55747  -3.19035   4.19286
Br   -3.79198  -5.09655   6.11463
N    -6.83711  -3.73521   8.82975
C    -6.79732  -2.92036  10.04907
H   -12.04703  -4.52519   9.53489
H   -11.11656  -4.25082  11.03373
H   -12.03036  -2.90247  10.29386
H   -10.31424  -2.57878   8.71950
H    -4.72637  -0.70152   7.54247
H    -3.11005  -1.47491   7.39952
H    -4.37149  -1.69227   6.12120
H    -8.91900  -3.19067   4.97172
H    -9.36377  -2.71751   2.59448
H    -9.79249  -4.59166   0.99784
H    -9.78836  -6.94456   1.83475
H    -9.32153  -7.42340   4.20319
H    -8.72002  -7.18448   7.71636
H    -8.95743  -7.76993   6.07286
H    -6.36442  -6.81675   7.41834
H    -6.82039  -8.45172   6.99973
H    -5.12368  -7.69698   5.48713
H    -6.61138  -7.99973   4.59177
H    -7.00010  -5.70072   4.14697
H    -5.32057  -6.02782   3.81436
H    -7.48624  -3.36375  10.77862
H    -5.78961  -2.96165  10.47323
H    -7.07818  -1.86425   9.89066
