24
Generated by autodE on: 2022-06-11. E = -721.631885 Ha
C     4.37764   0.49231  -0.23032
N     2.96026   0.66889   0.00439
C     2.06650  -0.27368  -0.36363
O     2.41305  -1.32880  -0.92078
C     0.67078   0.06775  -0.04442
C     0.22510   1.26250   0.58891
O     0.78314   2.26212   1.01571
O    -1.17481   1.12291   0.67845
C    -1.52974  -0.05407   0.14508
C    -2.93830  -0.46760   0.09707
C    -3.92484   0.50828   0.66836
O    -3.25245  -1.54887  -0.38660
N    -0.45159  -0.69882  -0.29237
C    -0.47907  -2.02040  -0.93675
H     4.76381  -0.40110   0.28669
H     4.91016   1.37421   0.14584
H     4.59734   0.37827  -1.30421
H     2.61725   1.51353   0.45871
H    -3.69602   0.70210   1.72870
H    -3.85481   1.47292   0.14058
H    -4.93708   0.09727   0.57063
H    -0.89356  -2.75177  -0.23320
H     0.54742  -2.27430  -1.20524
H    -1.12021  -1.97047  -1.82408
