31
Generated by autodE on: 2022-06-11. E = -5782.747027 Ha
N    -3.02887  -2.88439   1.90849
C    -2.24007  -2.03781   1.82731
C    -1.21331  -0.98427   1.74202
C    -1.54882   0.14484   2.73096
C    -1.85645  -0.18165   4.05967
C    -2.10867   0.82656   4.99102
C    -2.05516   2.17044   4.60453
C    -1.75118   2.49755   3.28146
C    -1.50023   1.48848   2.34564
C    -1.06337  -0.52861   0.35400
C    -0.42184  -0.25988  -0.63915
C     0.76694  -0.25756  -1.45074
Br    0.32851  -0.76584  -3.32704
Br    1.56150   1.56951  -1.46953
C     1.75228  -1.28184  -0.86188
C     2.29962  -1.01976   0.55651
C     1.37993  -0.68229   1.75108
C     0.20150  -1.62935   2.06212
H    -1.89986  -1.22837   4.36982
H    -2.34868   0.56100   6.02304
H    -2.25205   2.95931   5.33405
H    -1.70903   3.54350   2.96933
H    -1.26457   1.75220   1.31366
H     1.21739  -2.24419  -0.88846
H     2.60890  -1.37134  -1.54649
H     2.86972  -1.93053   0.80468
H     3.04427  -0.21062   0.49246
H     1.01272   0.35033   1.65519
H     2.03769  -0.66415   2.63349
H     0.27756  -2.56031   1.48073
H     0.18734  -1.90827   3.12486
