55
Generated by autodE on: 2022-06-11. E = -6504.370300 Ha. Imaginary frequency = -252.2 cm-1
C   -11.52164  -3.86582  10.23157
N   -10.38218  -3.26391   9.56790
C    -9.21142  -3.91565   9.47598
O    -8.96423  -4.97666  10.05950
C    -8.19927  -3.24748   8.60892
C    -8.45264  -2.23411   7.60225
O    -9.47419  -1.75842   7.14908
O    -7.19584  -1.82594   7.19187
C    -6.25856  -2.61326   7.80999
C    -4.86107  -2.06627   7.80508
C    -4.64731  -0.82305   6.99064
O    -3.98360  -2.58235   8.47155
C    -6.58386  -4.38736   6.48539
C    -7.81017  -4.58486   6.65361
C    -8.93723  -5.44740   6.19628
C   -10.25891  -5.03729   6.70994
N   -11.33486  -4.77290   7.05206
C    -9.06078  -5.32124   4.65419
C    -8.99709  -4.04066   4.08303
C    -9.09395  -3.87677   2.70160
C    -9.26053  -4.99174   1.87258
C    -9.34638  -6.26480   2.43927
C    -9.25415  -6.43102   3.82566
C    -8.65788  -6.89150   6.73585
C    -7.19723  -7.36186   6.74601
C    -6.35023  -7.37992   5.46261
C    -5.89065  -6.06887   4.79122
C    -5.46792  -4.91799   5.70845
Br   -4.73740  -3.45827   4.54200
Br   -3.98450  -5.53028   6.90174
N    -6.86374  -3.23308   8.86745
C    -6.18357  -4.16474   9.76437
H   -11.88049  -4.75089   9.68175
H   -11.25156  -4.17459  11.25122
H   -12.33119  -3.12780  10.28508
H   -10.54673  -2.49772   8.91730
H    -5.04925   0.02849   7.56750
H    -3.57125  -0.67591   6.83507
H    -5.18138  -0.85066   6.03354
H    -8.86493  -3.16688   4.72423
H    -9.03461  -2.87473   2.27085
H    -9.32736  -4.86618   0.78950
H    -9.48300  -7.14171   1.80240
H    -9.32080  -7.43484   4.24182
H    -9.00067  -6.90105   7.78050
H    -9.30413  -7.59182   6.19021
H    -6.65524  -6.81149   7.52884
H    -7.23381  -8.40338   7.10460
H    -5.44379  -7.95354   5.71012
H    -6.86991  -7.95869   4.68193
H    -6.68424  -5.65792   4.15303
H    -5.04698  -6.30557   4.12738
H    -6.67974  -4.14478  10.73906
H    -6.24930  -5.17846   9.34432
H    -5.13887  -3.86050   9.85008
