41
Generated by autodE on: 2022-05-30. E = -1122.957013 Ha
C    -3.83564   2.39264  -0.96022
N    -2.61448   1.96389  -0.31191
C    -2.16056   0.71146  -0.40438
O    -2.78678  -0.22306  -0.91222
C    -0.78963   0.46297   0.28868
C    -1.14649  -0.37498   1.53689
C    -1.61014   0.35929   2.76277
O    -1.09684  -1.58799   1.49707
N    -0.14055   1.74791   0.67024
N     1.12200   1.85764   0.01957
C     1.56344   0.49429  -0.25815
C     2.22125  -0.05733   0.99770
O     1.65926  -0.14146   2.07312
O     3.51007  -0.32576   0.81182
C     4.22921  -0.83731   1.94494
C     0.24608  -0.26381  -0.64494
C     0.38275  -1.79862  -0.50424
C    -0.67795  -2.69395  -1.08314
O     1.41577  -2.25877  -0.04567
C     0.07285   0.13742  -2.12869
C     0.73969  -0.70137  -3.18216
O    -0.50380   1.17034  -2.41420
H    -4.15651   3.35148  -0.53349
H    -3.69289   2.51848  -2.04728
H    -4.62834   1.64790  -0.80316
H    -1.93845   2.63927   0.04205
H    -0.72302   0.69333   3.32684
H    -2.17997  -0.32904   3.39971
H    -2.20962   1.24628   2.51698
H     0.04780   1.74313   1.66978
H     0.96752   2.33280  -0.87003
H     2.29989   0.49076  -1.06952
H     5.25900  -0.99318   1.60416
H     4.20599  -0.11642   2.77450
H     3.78681  -1.78946   2.27226
H    -0.31970  -3.07190  -2.05394
H    -0.80639  -3.56032  -0.42100
H    -1.62832  -2.16913  -1.22457
H     1.06743  -0.04976  -4.00314
H    -0.00872  -1.40226  -3.58652
H     1.58350  -1.28677  -2.79378
