28
Generated by autodE on: 2022-05-30. E = -744.899343 Ha
C     3.92117   0.19179  -1.03290
N     2.61901   0.71262  -0.66940
C     1.60731  -0.09832  -0.35181
O     1.72412  -1.33572  -0.34818
C     0.27274   0.51816   0.00893
C     0.12602   2.00334   0.19401
C    -1.01888   2.55485   0.99781
O     0.96060   2.77073  -0.27600
C    -0.74551  -0.36013   0.15091
C    -2.19671  -0.06275   0.45990
C    -3.06136   0.24114  -0.72255
O    -2.60367  -0.19397   1.59925
C    -0.58622  -1.86645  -0.04058
C    -0.31301  -2.65504   1.20715
O    -0.92056  -2.36334  -1.10301
H     4.34756  -0.41333  -0.21760
H     4.59352   1.03284  -1.23999
H     3.86099  -0.44610  -1.92929
H     2.41809   1.71270  -0.69022
H    -1.16879   1.99174   1.92804
H    -1.95392   2.51198   0.41809
H    -0.80752   3.60883   1.21842
H    -2.65841   1.09753  -1.28444
H    -4.09472   0.42943  -0.40283
H    -3.02245  -0.62622  -1.40334
H    -1.24993  -2.68828   1.78985
H    -0.02242  -3.68060   0.94026
H     0.45507  -2.17871   1.82900
