13
Generated by autodE on: 2022-05-30. E = -378.009474 Ha
C    -2.50688  -0.41652  -0.40731
O    -1.09272  -0.22400  -0.50080
C    -0.43011   0.01931   0.65775
O    -0.99580   0.07309   1.74335
C     0.98577   0.20392   0.46862
N     1.52640   0.12983  -0.75188
N     2.73397   0.25283  -1.16112
H    -2.99588   0.47569   0.01146
H    -2.85822  -0.59002  -1.43147
H    -2.74216  -1.28724   0.22282
H     1.63671   0.40502   1.31882
H     0.84415  -0.06213  -1.50017
H     3.31437   0.43996  -0.32953
