13
Generated by autodE on: 2022-07-26. E = -378.009717 Ha
C     2.07740  -1.76969   0.30456
O     1.42894  -0.78989  -0.51071
C     0.30615  -0.23211  -0.00525
O    -0.14514  -0.54443   1.09945
C    -0.26412   0.73471  -0.89731
N    -1.38725   1.40258  -0.57395
N    -2.14909   1.37688   0.45485
H     2.95577  -2.10235  -0.26154
H     1.41090  -2.62362   0.49835
H     2.39321  -1.33512   1.26501
H     0.17757   0.96898  -1.86205
H    -1.69160   2.06363  -1.30032
H    -1.73714   0.68296   1.09613
