41
Generated by autodE on: 2022-05-30. E = -1122.907627 Ha. Imaginary frequency = -323.2 cm-1
C    -3.68252   2.71735  -0.80066
N    -2.51762   2.06327  -0.24371
C    -2.25073   0.77701  -0.48348
O    -2.99017   0.04012  -1.15184
C    -1.03935   0.13947   0.19391
C    -1.35674  -0.54013   1.50053
C    -2.53909  -0.05636   2.28636
O    -0.63938  -1.44250   1.91111
N    -0.08243   1.79581   0.98305
N     0.85492   1.93789   0.06598
C     1.74974   0.97499  -0.22414
C     2.41238   0.22578   0.86574
O     1.97597   0.11172   1.99980
O     3.58580  -0.25454   0.46360
C     4.28917  -1.09161   1.39240
C    -0.04553  -0.48312  -0.62032
C     0.40948  -1.90126  -0.31933
C    -0.64012  -2.97056  -0.52744
O     1.57401  -2.19751  -0.11294
C     0.10112  -0.02811  -2.02772
C     0.90737  -0.87337  -2.97752
O    -0.39836   1.03706  -2.39137
H    -3.71545   3.75351  -0.44209
H    -3.64761   2.72418  -1.90244
H    -4.60908   2.20550  -0.49540
H    -1.84123   2.56583   0.32800
H    -2.45343   1.02385   2.47862
H    -2.60201  -0.60491   3.23413
H    -3.46179  -0.21130   1.70478
H     0.33378   1.24788   1.74753
H     0.58804   2.53846  -0.71918
H     2.33065   1.13610  -1.13253
H     5.20792  -1.40152   0.88189
H     4.53122  -0.53418   2.30837
H     3.67667  -1.96923   1.64372
H    -0.52287  -3.33100  -1.56404
H    -0.45556  -3.81728   0.14760
H    -1.66391  -2.59281  -0.42036
H     1.05988  -0.32555  -3.91577
H     0.36482  -1.80962  -3.18800
H     1.87495  -1.14874  -2.53507
