36
Generated by autodE on: 2022-05-28. E = -750.444373 Ha
C    -1.50152   3.19622   0.02390
C    -2.00443   1.82111   0.34797
O    -3.19530   1.54925   0.35167
C    -0.95838   0.79093   0.75381
N    -1.55805  -0.24894   1.60093
O    -1.04958  -1.49964   1.12724
C    -0.89140  -1.39271  -0.30255
C    -2.25922  -1.53249  -0.98065
C     0.01474  -2.53666  -0.73277
C    -0.25896   0.04879  -0.45920
C    -0.57555   0.65444  -1.83160
C     1.25370  -0.01542  -0.20968
C     1.76471  -0.21812   1.08614
C     3.13669  -0.33923   1.31466
C     4.04058  -0.25738   0.25080
C     3.55073  -0.05604  -1.04066
C     2.17497   0.06235  -1.26608
H    -1.41573   3.74151   0.98096
H    -2.21627   3.72759  -0.61831
H    -0.50000   3.17856  -0.42676
H    -0.19085   1.34334   1.31087
H    -2.55880  -0.25561   1.37485
H    -2.72211  -2.46930  -0.63539
H    -2.15502  -1.58564  -2.07301
H    -2.93782  -0.70296  -0.74361
H    -0.52157  -3.49306  -0.63904
H     0.30805  -2.40983  -1.78528
H     0.92429  -2.58403  -0.12086
H    -1.64916   0.84080  -1.95655
H    -0.04652   1.60471  -1.98217
H    -0.27019  -0.02984  -2.63570
H     1.08629  -0.29967   1.93535
H     3.50038  -0.49785   2.33292
H     5.11473  -0.34846   0.42864
H     4.24074   0.01113  -1.88548
H     1.82940   0.21003  -2.28846
