11
Generated by autodE on: 2022-05-28. E = -322.617934 Ha
C    -2.37791   0.10724  -0.05637
C    -0.95881  -0.37815  -0.04808
O    -0.65609  -1.56868  -0.11514
C     0.08230   0.65537   0.04421
N     1.32959   0.25467   0.05026
O     2.36768   0.95114   0.12159
H    -2.57597   0.69929   0.85241
H    -2.53406   0.78050  -0.91575
H    -3.07015  -0.74231  -0.11268
H    -0.12267   1.72440   0.10728
H     1.43779  -0.77961  -0.01440
