25
Generated by autodE on: 2022-05-28. E = -427.795934 Ha
C    -3.43209   0.78655   0.12756
C    -2.01197   0.45099  -0.25061
C    -1.79504   0.45157  -1.74446
C    -1.03693   0.15682   0.64338
C    -1.23959   0.07650   2.13839
C     0.37138  -0.10824   0.21646
C     1.01139  -1.31596   0.55080
C     2.33506  -1.55752   0.17402
C     3.05414  -0.58887  -0.53397
C     2.43646   0.62207  -0.86189
C     1.11066   0.85869  -0.48872
H    -4.12276  -0.00141  -0.22296
H    -3.74662   1.71477  -0.38112
H    -3.59130   0.92271   1.20403
H    -1.83066   1.47914  -2.14832
H    -0.84214   0.00136  -2.04912
H    -2.61155  -0.10099  -2.24115
H    -0.59161   0.80426   2.65744
H    -0.94871  -0.91799   2.51694
H    -2.27509   0.25943   2.45002
H     0.46038  -2.08214   1.10164
H     2.80744  -2.50820   0.43424
H     4.09057  -0.77564  -0.82536
H     2.99059   1.38950  -1.40836
H     0.63725   1.80998  -0.74190
