36
Generated by autodE on: 2022-05-28. E = -750.391487 Ha. Imaginary frequency = -400.6 cm-1
C    -0.43561   3.06793   0.48700
C    -1.51714   2.03610   0.61793
O    -2.68512   2.24427   0.29242
C    -1.09477   0.71838   1.11489
N    -2.03554  -0.18331   1.42478
O    -1.65216  -1.42408   1.47385
C    -0.86766  -1.71445  -0.35288
C    -2.17345  -2.07503  -1.02011
C    -0.04498  -2.92771   0.00064
C    -0.28440  -0.44229  -0.68106
C    -0.94541   0.34639  -1.79835
C     1.17383  -0.20181  -0.48401
C     1.83066  -0.50104   0.73120
C     3.19050  -0.24557   0.90710
C     3.94483   0.32295  -0.12538
C     3.31485   0.63265  -1.33294
C     1.95115   0.37883  -1.50736
H    -0.12093   3.38937   1.49450
H     0.45231   2.63221   0.00081
H    -0.79929   3.93453  -0.07995
H    -0.12779   0.61195   1.60018
H    -2.98000   0.00118   1.05935
H    -2.93355  -1.28851  -0.90335
H    -2.57539  -3.01083  -0.60706
H    -2.02598  -2.21866  -2.10506
H     0.16960  -3.49160  -0.92481
H     0.91099  -2.69919   0.47951
H    -0.61651  -3.59605   0.66225
H    -2.02476   0.45749  -1.63416
H    -0.52344   1.35550  -1.89070
H    -0.81933  -0.15581  -2.77415
H     1.26359  -0.93011   1.55792
H     3.66291  -0.48593   1.86291
H     5.00942   0.52552   0.01309
H     3.88679   1.07713  -2.15145
H     1.49119   0.62559  -2.46459
