42
Generated by autodE on: 2022-06-19. E = -1049.693045 Ha
C    -0.02407   2.89163   0.48190
N    -0.82681   1.78243  -0.00369
C    -1.46455   1.92299  -1.23099
C    -2.42836   1.06850  -1.61077
C    -2.86970   0.02534  -0.62502
C    -1.70792  -0.58250   0.20833
C    -2.24872  -1.18526   1.52338
N    -3.33803  -1.96427   1.41158
O    -1.70752  -0.97712   2.61165
C    -0.57718   0.45650   0.51791
C     0.69186  -0.27564  -0.11579
C     1.88122   0.59403  -0.37963
C     2.72891   0.98985   0.66646
C     3.77985   1.87629   0.42430
C     3.99522   2.38145  -0.86231
C     3.15498   1.98842  -1.90798
C     2.10337   1.10009  -1.66780
N     0.07255  -0.90628  -1.29036
C    -0.89936  -1.67556  -0.57918
C    -1.60887  -2.73810  -1.36610
O    -0.07847  -2.36353   0.49115
C     0.90191  -1.49680   0.80273
O     1.71842  -1.70716   1.66888
H     0.84795   3.11587  -0.15650
H    -0.64108   3.80258   0.54553
H     0.34524   2.66346   1.49030
H    -1.14061   2.76789  -1.84756
H    -2.90506   1.14786  -2.58828
H    -3.56349   0.49293   0.09800
H    -3.43942  -0.77395  -1.11878
H    -3.72235  -2.39111   2.24944
H    -3.81194  -2.11858   0.52981
H    -0.42839   0.53865   1.59900
H     2.55729   0.61281   1.67413
H     4.43063   2.18028   1.24764
H     4.81532   3.07897  -1.04845
H     3.31404   2.37848  -2.91613
H     1.43786   0.81111  -2.48159
H     0.73364  -1.51772  -1.77692
H    -2.16317  -2.28317  -2.19728
H    -2.30701  -3.29993  -0.73264
H    -0.86819  -3.43835  -1.77883
