20
Generated by autodE on: 2022-06-19. E = -457.715303 Ha
C    -3.04948  -0.26447   0.85917
N    -1.80612   0.16915   0.24347
C    -1.79267   1.33268  -0.53575
C    -0.67076   1.82388  -1.08540
C     0.68220   1.17795  -0.91528
C     0.56840  -0.07683  -0.06453
C     1.74606  -0.90676   0.23629
N     2.92799  -0.46971  -0.26738
O     1.69443  -1.95819   0.90674
C    -0.62773  -0.48303   0.44788
H    -2.88822  -1.22293   1.36818
H    -3.40750   0.47042   1.59943
H    -3.83525  -0.39949   0.09915
H    -2.76601   1.80914  -0.66596
H    -0.74168   2.73310  -1.68677
H     1.39420   1.90017  -0.46514
H     1.11909   0.94381  -1.90762
H     3.76656  -1.00448  -0.06954
H     3.01593   0.39192  -0.79070
H    -0.67940  -1.38425   1.06079
