22
Generated by autodE on: 2022-06-19. E = -591.970290 Ha
C    -3.93506   0.71087  -0.84392
C    -2.63543   0.23437  -0.33932
N    -1.43367   0.64929  -0.66837
C    -0.44569  -0.05838   0.03210
C     0.97817   0.16825  -0.10847
C     1.49456   1.17077  -0.96004
C     2.87056   1.36801  -1.08187
C     3.77207   0.57768  -0.36123
C     3.27311  -0.41710   0.48815
C     1.90049  -0.62295   0.61645
C    -1.12876  -0.97355   0.84784
O    -0.83883  -1.84297   1.66464
O    -2.53806  -0.73071   0.56092
H    -4.54431   1.09597  -0.01055
H    -4.48709  -0.12224  -1.30745
H    -3.78567   1.50652  -1.58465
H    -1.26733   1.38420  -1.35331
H     0.82086   1.81023  -1.53511
H     3.24065   2.15104  -1.74858
H     4.84846   0.73512  -0.45940
H     3.96268  -1.04390   1.05957
H     1.52426  -1.40139   1.28025
