42
Generated by autodE on: 2022-06-19. E = -1049.665284 Ha. Imaginary frequency = -427.8 cm-1
C     0.05742   2.84403   0.44603
N    -0.74794   1.73473  -0.05348
C    -1.33224   1.84644  -1.32826
C    -2.32752   1.03525  -1.71228
C    -2.89089   0.00567  -0.76924
C    -1.85956  -0.41349   0.29512
C    -2.40324  -1.13249   1.50531
N    -3.58348  -1.76842   1.34854
O    -1.80425  -1.15235   2.58861
C    -0.94354   0.62544   0.69021
C     1.13390  -0.62990  -0.23993
C     2.08617   0.42612  -0.47858
C     2.97732   0.84820   0.53656
C     3.82343   1.93388   0.33187
C     3.81475   2.62824  -0.88646
C     2.95499   2.20750  -1.90542
C     2.10054   1.12158  -1.70876
N     0.23921  -1.10712  -1.20661
C    -0.73920  -1.80471  -0.51901
C    -1.58604  -2.79128  -1.25998
O    -0.09829  -2.31858   0.59751
C     0.98701  -1.46826   0.89603
O     1.56954  -1.57930   1.97396
H     0.80320   3.14578  -0.30138
H    -0.58579   3.70979   0.67448
H     0.57735   2.53387   1.35869
H    -0.91971   2.63835  -1.95477
H    -2.75659   1.14528  -2.70955
H    -3.78610   0.42381  -0.26818
H    -3.25516  -0.86240  -1.33643
H    -3.96146  -2.28625   2.13546
H    -4.08171  -1.79745   0.46795
H    -0.54695   0.64237   1.70293
H     2.97788   0.32262   1.49114
H     4.49581   2.24885   1.13391
H     4.47756   3.48281  -1.03990
H     2.94266   2.73329  -2.86335
H     1.43632   0.82088  -2.52105
H    -0.04931  -0.51786  -1.98197
H    -1.94910  -2.35270  -2.19852
H    -2.44157  -3.11672  -0.65560
H    -0.97280  -3.67270  -1.50214
