51
Generated by autodE on: 2022-06-22. E = -1151.364007 Ha
C     2.30862  -0.07333   2.50416
C     1.38305  -0.85426   1.60947
O     0.85863  -1.87843   2.02307
C     0.97020  -0.26953   0.22977
C     2.08239   0.52694  -0.42898
C     1.82398   1.71504  -1.12707
C     2.85104   2.38674  -1.79489
C     4.15257   1.87657  -1.78273
C     4.41789   0.68669  -1.09880
C     3.39020   0.01886  -0.42816
N    -0.23141   0.53667   0.50632
C    -0.16620   1.69150   1.38931
C    -1.41578  -0.31758   0.61080
C    -1.74988  -0.50870   2.05436
N    -1.96134  -0.45162   3.19459
C    -2.65728   0.31134  -0.04892
C    -3.91243  -0.28021   0.15101
C    -5.04577   0.24204  -0.47478
C    -4.93561   1.36278  -1.30535
C    -3.68483   1.95121  -1.50816
C    -2.54757   1.42749  -0.88380
C    -1.00215  -1.64824  -0.11765
C    -1.17315  -2.91579   0.68067
O    -2.06065  -3.09227   1.49135
C     0.39965  -1.37101  -0.73514
C     1.31075  -2.59401  -0.88185
C     0.17930  -0.79718  -2.14667
H     2.46242   0.96200   2.18157
H     3.28924  -0.57722   2.50609
H     1.91412  -0.10867   3.53005
H     0.80848   2.10881  -1.16052
H     2.63003   3.31245  -2.33156
H     4.95554   2.40226  -2.30475
H     5.42937   0.27403  -1.08546
H     3.61457  -0.91098   0.09765
H    -0.08965   1.43356   2.46103
H    -1.07359   2.29842   1.25878
H     0.69612   2.31396   1.12245
H    -3.99937  -1.16245   0.78948
H    -6.01819  -0.22916  -0.31370
H    -5.82240   1.77410  -1.79313
H    -3.58853   2.82520  -2.15661
H    -1.57116   1.88260  -1.04852
H    -1.71365  -1.81090  -0.94479
H    -0.50277  -3.75293   0.39706
H     2.23405  -2.29818  -1.40062
H     0.81861  -3.35548  -1.50591
H     1.58812  -3.05633   0.07180
H     1.13296  -0.57215  -2.64245
H    -0.34834  -1.54957  -2.75234
H    -0.42993   0.11524  -2.13544
