37
Generated by autodE on: 2022-06-22. E = -880.641820 Ha
C    -2.69502  -2.52046  -1.24375
C    -1.29150  -2.55419  -0.67871
O    -0.60859  -3.57991  -0.81729
C    -0.78002  -1.37952   0.02316
C    -1.35767  -0.04009  -0.18415
C    -1.57348   0.82131   0.91080
C    -2.13661   2.08123   0.72549
C    -2.48871   2.51630  -0.55920
C    -2.27315   1.67627  -1.65389
C    -1.70697   0.41301  -1.46928
N     0.30287  -1.52645   0.85082
C     0.48468  -2.78513   1.60935
C     1.20500  -0.53806   1.09064
C     1.96740  -0.59044   2.28368
N     2.63561  -0.57851   3.24267
C     1.47227   0.58553   0.18378
C     1.83235   1.84180   0.70965
C     2.14259   2.90421  -0.13897
C     2.10647   2.73052  -1.52600
C     1.76032   1.48268  -2.05804
C     1.43730   0.42158  -1.21618
H    -3.33910  -1.76475  -0.77803
H    -2.65815  -2.32487  -2.32771
H    -3.13157  -3.52124  -1.10899
H    -1.29754   0.49706   1.91632
H    -2.30470   2.73010   1.58818
H    -2.92495   3.50751  -0.70269
H    -2.53391   2.00891  -2.66128
H    -1.51429  -0.22151  -2.33532
H     0.69056  -2.52395   2.65488
H    -0.42983  -3.37785   1.57023
H     1.32985  -3.35279   1.20200
H     1.85906   1.98576   1.79166
H     2.40935   3.87431   0.28635
H     2.34683   3.56305  -2.19099
H     1.73576   1.33618  -3.14018
H     1.16648  -0.54467  -1.64387
