37
Generated by autodE on: 2022-07-27. E = -880.641645 Ha
C    -0.12505  -1.24398   2.36506
C     1.05894  -1.14835   1.42052
O     2.03597  -1.88082   1.62473
C     1.10911  -0.12591   0.37379
C     2.40458   0.26245  -0.20670
C     2.54074   0.41089  -1.60198
C     3.76654   0.76551  -2.16580
C     4.88250   0.97240  -1.34821
C     4.76255   0.81973   0.03781
C     3.53785   0.46804   0.60456
N    -0.04492   0.43822  -0.08890
C    -0.09405   1.87522  -0.42758
C    -1.15213  -0.34225  -0.22663
C    -0.94657  -1.70934  -0.54821
N    -0.85402  -2.83290  -0.85732
C    -2.52576   0.14040  -0.07156
C    -2.84234   1.20241   0.80226
C    -4.16038   1.63555   0.93830
C    -5.18790   1.01387   0.22091
C    -4.88845  -0.05523  -0.63158
C    -3.57366  -0.49178  -0.77517
H    -0.66953  -2.18563   2.19210
H     0.29252  -1.29158   3.38243
H    -0.83161  -0.40795   2.30209
H     1.67867   0.23133  -2.24849
H     3.85310   0.87138  -3.24978
H     5.84312   1.24822  -1.78939
H     5.62938   0.98194   0.68279
H     3.45157   0.36047   1.68654
H     0.81935   2.14515  -0.96506
H    -0.96036   2.07491  -1.06528
H    -0.14839   2.47107   0.49257
H    -2.06053   1.67504   1.39684
H    -4.38807   2.45716   1.62108
H    -6.21970   1.35420   0.33318
H    -5.68547  -0.55115  -1.18998
H    -3.34819  -1.32451  -1.44433
