14
Generated by autodE on: 2022-06-22. E = -270.687339 Ha
C    -1.77724   1.54387   0.11226
C    -0.91126   0.34094  -0.10879
C    -1.61307  -0.83280  -0.72384
C     0.40170   0.37068   0.24121
C     1.34995  -0.71772   0.08109
O     2.52964  -0.64198   0.41634
H    -2.21480   1.87640  -0.84504
H    -2.62887   1.28284   0.76416
H    -1.22539   2.38032   0.56275
H    -2.46877  -1.12117  -0.09003
H    -0.97809  -1.71327  -0.87443
H    -2.03917  -0.53604  -1.69732
H     0.81704   1.28109   0.68645
H     0.96914  -1.66041  -0.37182
