65
Generated by autodE on: 2022-06-13. E = -1513.389480 Ha
C    -1.76706  -3.93168  -1.19968
N    -1.47689  -2.58130  -0.75887
C    -0.25577  -2.23151  -0.33920
O     0.67343  -3.05348  -0.31498
C    -0.00292  -0.84414   0.26556
C     0.12682  -1.11455   1.81788
C    -1.08703  -1.92250   2.31683
C    -2.25519  -0.91870   2.14209
C    -1.53670   0.39186   1.74008
C    -0.18255   0.24728   2.44600
C    -1.11604   0.32619   0.24090
C    -2.28527   0.31191  -0.75022
C    -2.07611   0.05710  -2.11686
C    -3.12140   0.15174  -3.03651
C    -4.40434   0.51223  -2.61297
C    -4.62586   0.77510  -1.25990
C    -3.57754   0.67784  -0.33967
N    -0.26737   1.49532  -0.09412
C    -0.53745   2.76532   0.30458
O    -1.62630   3.14696   0.72031
O     0.51992   3.58970   0.15922
C     0.29265   4.96202   0.49605
N     0.93855   1.18327  -0.72959
C     1.06150   1.70042  -2.08846
C     1.32186  -0.19322  -0.38160
C     1.70050  -0.89253  -1.73904
C     3.14596  -1.05880  -2.10958
O     0.82230  -1.20969  -2.51803
C     2.52568  -0.18138   0.57383
C     3.04016   1.02421   1.06361
C     4.14866   1.03646   1.91794
C     4.76554  -0.15979   2.28894
C     4.25935  -1.37088   1.80322
C     3.14937  -1.38025   0.95820
H    -1.61875  -4.65778  -0.38410
H    -1.11424  -4.22294  -2.03733
H    -2.81210  -3.97684  -1.53005
H    -2.21381  -1.88694  -0.79403
H     1.08035  -1.57639   2.07681
H    -1.24193  -2.87510   1.79567
H    -0.92523  -2.16039   3.37824
H    -2.98199  -1.25019   1.38921
H    -2.80781  -0.76635   3.08008
H    -2.10094   1.29532   1.97534
H     0.53705   1.03887   2.20824
H    -0.28341   0.18260   3.53903
H    -1.08962  -0.24819  -2.45929
H    -2.92977  -0.06016  -4.09114
H    -5.22359   0.58746  -3.33189
H    -5.62075   1.06228  -0.91138
H    -3.78146   0.90119   0.70605
H     1.23906   5.47887   0.29735
H     0.02367   5.06505   1.55734
H    -0.50726   5.38930  -0.12592
H     0.92455   2.78881  -2.05592
H     0.35097   1.27262  -2.81359
H     2.08468   1.51890  -2.44459
H     3.75918  -0.21241  -1.77276
H     3.21761  -1.19012  -3.19706
H     3.54233  -1.96042  -1.61704
H     2.56088   1.95706   0.76962
H     4.53073   1.98992   2.29099
H     5.63394  -0.15160   2.95207
H     4.72978  -2.31552   2.08676
H     2.74761  -2.32737   0.59711
