34
Generated by autodE on: 2022-06-13. E = -712.151538 Ha
C    -0.36398   3.58466  -0.86496
N    -0.53684   2.16088  -0.66174
C    -1.13683   1.66116   0.44123
O    -1.73769   2.38551   1.25079
C    -1.10580   0.18701   0.61720
C    -0.13442  -0.72573   0.34739
C     1.24658  -0.53383  -0.11195
C     1.83628  -1.46401  -0.99134
C     3.14635  -1.28979  -1.44205
C     3.90031  -0.19370  -1.01151
C     3.33468   0.72567  -0.12047
C     2.02445   0.55767   0.32695
C    -0.77813  -2.09926   0.53015
C    -1.79227  -2.26743  -0.64741
C    -2.89026  -1.21710  -0.31331
C    -2.36025  -0.57836   1.01062
C    -1.74047  -1.80969   1.69940
H    -1.30031   4.11580  -0.64445
H    -0.08841   3.76973  -1.91105
H     0.42550   3.99984  -0.21394
H     0.00244   1.52478  -1.23902
H     1.25646  -2.32212  -1.33658
H     3.58125  -2.01641  -2.13256
H     4.92716  -0.06105  -1.36011
H     3.92250   1.57481   0.23643
H     1.60288   1.26583   1.04281
H    -0.07287  -2.93118   0.64729
H    -2.19996  -3.28931  -0.64584
H    -1.31458  -2.09731  -1.62252
H    -3.86627  -1.69526  -0.14110
H    -3.01895  -0.46219  -1.10226
H    -3.10208   0.00700   1.56719
H    -1.21743  -1.56089   2.63460
H    -2.46202  -2.62195   1.87891
