31
Generated by autodE on: 2022-06-13. E = -801.219130 Ha
C     4.76766   0.29265   0.00238
O     3.76940  -0.34289   0.80050
C     2.48155  -0.02880   0.51218
O     2.20266   0.77521  -0.38676
N     1.65473  -0.68139   1.35076
N     0.33208  -0.44951   1.18291
C    -0.37454  -0.44140   2.47710
C    -0.30105  -0.28280   0.04384
C     0.37340  -0.62086  -1.27413
C     0.16152   0.33103  -2.41433
O     0.92870  -1.69852  -1.39661
C    -1.71322   0.13655  -0.02398
C    -2.15223   1.31030   0.61565
C    -3.48009   1.71894   0.49368
C    -4.38222   0.96391  -0.26320
C    -3.95038  -0.19984  -0.90781
C    -2.62115  -0.60853  -0.79877
H     4.75820   1.38366   0.14857
H     5.72940  -0.11609   0.33705
H     4.62021   0.07322  -1.06599
H    -0.20487   0.52213   2.97535
H    -1.44403  -0.61972   2.33771
H     0.07209  -1.24033   3.07938
H     1.00194   0.24425  -3.11572
H    -0.76238   0.04459  -2.94393
H     0.04843   1.36534  -2.06565
H    -1.44662   1.90886   1.19418
H    -3.81092   2.63437   0.98902
H    -5.42198   1.28584  -0.35508
H    -4.65141  -0.79191  -1.50001
H    -2.28588  -1.51792  -1.30230
