36
Generated by autodE on: 2022-05-29. E = -3324.061537 Ha
C     2.88886  -2.04029   1.74564
C     1.95169  -1.75673   0.60645
O     1.66073  -2.60062  -0.22226
C     1.43938  -0.31734   0.43478
C     2.46460   0.34560  -0.50932
N     1.48284   0.45017   1.69002
C     0.42108   1.14159   1.81815
C    -0.66487   0.96011   0.78156
C    -0.80312   2.27699  -0.00302
C    -2.13987   2.68606  -0.54722
O     0.17805   2.99236  -0.12553
C    -1.99724   0.36331   1.35220
C    -1.66240  -0.57108   2.53098
C    -0.92014  -1.74397   1.83001
C    -1.02103  -1.39854   0.32068
C    -2.38104  -0.67650   0.28310
C    -0.05500  -0.24470  -0.04222
Br   -0.20393   0.02481  -2.02538
H     3.24059  -3.07824   1.68356
H     2.38493  -1.86543   2.70784
H     3.74384  -1.34726   1.70984
H     2.55713  -0.21475  -1.44708
H     3.44411   0.36978  -0.01091
H     2.15643   1.37673  -0.72615
H     0.29230   1.83262   2.65930
H    -2.68062   1.84902  -1.00606
H    -2.75722   3.05165   0.29095
H    -2.00608   3.50101  -1.27020
H    -2.74348   1.13027   1.58804
H    -2.59704  -0.91538   2.99673
H    -1.06499  -0.09099   3.31760
H    -1.42804  -2.70324   2.00252
H     0.10740  -1.86551   2.19308
H    -0.89800  -2.26438  -0.33636
H    -2.62993  -0.25967  -0.69982
H    -3.20782  -1.32291   0.61206
