52
Generated by autodE on: 2022-06-05. E = -1392.204855 Ha
C     3.21897  -3.22475   1.82551
N     2.49083  -2.59507   0.74337
C     2.93737  -1.46715   0.15547
O     4.01994  -0.93322   0.44134
C     2.02716  -0.93393  -0.88971
C     1.52588   0.31084  -1.06582
C     1.73674   1.55434  -0.31705
C     2.07299   1.55007   1.05121
C     2.26079   2.74600   1.74045
C     2.12181   3.97269   1.08028
C     1.78758   3.99199  -0.27636
C     1.58973   2.79471  -0.96707
C     0.52973   0.15245  -2.21808
O     1.16274  -0.85771  -3.01897
C     1.36369  -1.79892  -1.95583
C    -0.11317  -2.07113  -1.54390
N    -0.33764  -2.46101  -0.15456
N    -0.66058  -1.24910   0.54814
C    -1.25592  -1.55311   1.83674
C    -1.41056  -0.37549  -0.39066
C    -2.87077  -0.85277  -0.45718
O    -3.21265  -1.85499  -1.05058
O    -3.68101  -0.12213   0.30396
C    -5.04612  -0.56149   0.42068
C    -1.38252   1.08385   0.06017
O    -1.12912   1.47113   1.17790
O    -1.72967   1.88297  -0.94737
C    -1.88316   3.28009  -0.64537
C    -0.73195  -0.65917  -1.74394
H     4.25943  -3.42620   1.52980
H     2.73308  -4.17589   2.07771
H     3.24328  -2.59167   2.72907
H     1.51237  -2.85541   0.55897
H     2.15636   0.60532   1.58713
H     2.50865   2.72276   2.80421
H     2.26815   4.90888   1.62401
H     1.67311   4.94354  -0.80045
H     1.32365   2.82581  -2.02463
H     0.29541   1.04099  -2.80972
H     1.92435  -2.67726  -2.29283
H    -0.54684  -2.82585  -2.20877
H    -1.16366  -3.07264  -0.13446
H    -0.50925  -2.07192   2.45528
H    -2.14896  -2.20817   1.75530
H    -1.53852  -0.62020   2.33585
H    -5.08203  -1.56762   0.86119
H    -5.52633  -0.57194  -0.56774
H    -5.53879   0.16274   1.07860
H    -0.96096   3.68147  -0.20618
H    -2.09800   3.77210  -1.60041
H    -2.72000   3.41849   0.05436
H    -1.46541  -0.63731  -2.55547
