22
Generated by autodE on: 2022-06-05. E = -645.312595 Ha
C     3.22936  -1.27735  -0.43233
O     1.81943  -1.03704  -0.36407
C     1.43539   0.21181  -0.05884
O     2.25924   1.10044   0.17075
C    -0.00521   0.37555   0.00332
C    -0.89402  -0.76772  -0.30166
O    -0.75127  -1.52290  -1.24560
O    -1.87505  -0.92284   0.60099
C    -2.85965  -1.92636   0.31834
N    -0.52506   1.60548   0.35028
C    -1.99580   1.81152   0.30491
N     0.12324   2.64943   0.67814
H     3.69601  -0.64557  -1.20220
H     3.70666  -1.07884   0.53856
H     3.33910  -2.33561  -0.69697
H    -2.39786  -2.92375   0.29476
H    -3.34673  -1.72677  -0.64743
H    -3.59214  -1.86731   1.13171
H    -2.44484   1.38568   1.20783
H    -2.41719   1.33155  -0.58438
H    -2.14979   2.89304   0.27085
H     1.12448   2.39438   0.67761
