52
Generated by autodE on: 2022-06-05. E = -1392.109781 Ha. Imaginary frequency = -383.9 cm-1
C     3.05418  -3.59571   1.71077
N     2.33917  -2.89889   0.65953
C     2.79715  -1.72127   0.17791
O     3.90326  -1.25825   0.49743
C     1.89747  -1.07536  -0.80987
C     1.45954   0.19875  -0.99108
C     1.70440   1.46106  -0.29101
C     2.61699   1.56477   0.78318
C     2.82241   2.78020   1.43230
C     2.13269   3.92863   1.02658
C     1.23673   3.84690  -0.04195
C     1.02424   2.63008  -0.69153
C     0.50354   0.08049  -2.19951
O     1.20202  -0.91622  -2.98195
C     1.22287  -1.89777  -1.92077
C    -0.28204  -2.02379  -1.61912
N    -0.58141  -2.41398   0.49216
N    -0.81669  -1.20088   0.95293
C     0.11792  -0.69006   1.96501
C    -1.68895  -0.37352   0.28628
C    -2.95186  -0.97159  -0.22192
O    -3.16647  -2.17091  -0.33228
O    -3.86092  -0.05343  -0.54929
C    -5.10248  -0.53320  -1.08810
C    -1.77131   1.06715   0.69601
O    -1.69374   1.47384   1.83835
O    -1.97114   1.86129  -0.35343
C    -2.26815   3.23762  -0.07455
C    -0.76583  -0.72876  -1.81616
H     4.09039  -3.80018   1.40504
H     2.55081  -4.54971   1.91314
H     3.08783  -3.00780   2.64460
H     1.32833  -3.05932   0.57223
H     3.17816   0.68633   1.09481
H     3.53222   2.83295   2.26128
H     2.29757   4.88042   1.53683
H     0.69366   4.73463  -0.37332
H     0.31065   2.59309  -1.51254
H     0.32459   0.98644  -2.78362
H     1.73666  -2.81648  -2.22014
H    -0.82391  -2.93464  -1.86718
H    -1.46037  -2.77059   0.11264
H     0.87443  -1.45998   2.12888
H    -0.43113  -0.51929   2.89944
H     0.58988   0.24669   1.65848
H    -5.62730  -1.15448  -0.34870
H    -4.92176  -1.11904  -2.00038
H    -5.69088   0.36169  -1.31986
H    -1.49834   3.68014   0.56963
H    -2.29053   3.74335  -1.04625
H    -3.24957   3.31264   0.41676
H    -1.71478  -0.47402  -2.28406
