42
Generated by autodE on: 2022-06-03. E = -1422.475696 Ha
C    -3.90040   1.90844   1.51503
O    -2.59540   1.78215   0.91782
C    -2.47632   0.93875  -0.09420
O    -3.38592   0.32986  -0.60364
C    -1.02114   0.89768  -0.66125
C    -0.71071   2.30391  -0.98604
N    -0.53617   3.41447  -1.26881
N    -0.94549   0.09206  -1.86275
C    -0.74394  -1.30289  -1.50433
C    -1.97902  -2.09805  -1.33578
N    -2.91356  -2.78398  -1.29885
C     0.15191  -1.25787  -0.22551
C     1.51364  -1.87872  -0.57730
F     1.39579  -3.22449  -0.55675
F     1.94539  -1.55926  -1.81176
F     2.49734  -1.55853   0.26974
C    -0.48427  -2.01212   1.01422
C     0.52504  -2.00122   2.14906
C     0.53360  -0.74160   2.59331
C    -0.48833  -0.00301   1.74555
O    -1.43690  -1.03942   1.44945
C     0.08888   0.24928   0.30139
C     1.34845   1.10263   0.27400
C     2.09698   1.25720  -0.90458
C     3.20198   2.10706  -0.94658
C     3.57546   2.83452   0.18707
C     2.82273   2.71193   1.35622
C     1.71643   1.85835   1.39759
H    -3.79102   2.64527   2.31788
H    -4.62464   2.25659   0.76600
H    -4.21787   0.93827   1.92174
H    -1.74694   0.23816  -2.47649
H    -0.22182  -1.81057  -2.32790
H    -0.95929  -2.96445   0.76391
H     1.14763  -2.84437   2.44368
H     1.15763  -0.29175   3.36286
H    -0.97116   0.86616   2.19274
H     1.80489   0.72516  -1.80764
H     3.76932   2.20511  -1.87489
H     4.44078   3.50046   0.15531
H     3.08915   3.28765   2.24544
H     1.13656   1.81122   2.31847
