16
Generated by autodE on: 2022-07-27. E = -546.535765 Ha
C    -1.44757   1.12370   2.56528
O    -0.71457   1.33136   1.35012
C    -0.51248   0.25212   0.58050
O    -0.88350  -0.87234   0.87586
C     0.15126   0.60006  -0.66918
C     0.25396   1.95034  -1.07227
N     0.34501   3.06594  -1.40360
N     0.55802  -0.34511  -1.56333
C     0.79125  -1.64396  -1.49956
C     0.87111  -2.43912  -0.33776
N     1.05355  -3.19477   0.53171
H    -1.50418   2.10368   3.05269
H    -2.45838   0.74916   2.34728
H    -0.92328   0.40659   3.21339
H     0.72965   0.03206  -2.50163
H     1.05196  -2.12244  -2.44541
