16
Generated by autodE on: 2022-06-03. E = -546.545794 Ha
C    -3.68953  -0.17018  -0.75395
O    -2.51750  -0.00800   0.05901
C    -1.33925  -0.11364  -0.55811
O    -1.19602  -0.33639  -1.75178
C    -0.21435   0.06677   0.35432
C    -0.35981   0.32410   1.72982
N    -0.46368   0.53770   2.87264
N     1.01156  -0.03205  -0.21106
C     2.20815   0.07717   0.32944
C     3.36737  -0.06355  -0.45995
N     4.34468  -0.17489  -1.08710
H    -4.54256  -0.05502  -0.07576
H    -3.72100   0.59877  -1.53929
H    -3.70186  -1.16824  -1.21497
H     0.95066  -0.22398  -1.22339
H     2.29886   0.28078   1.39871
