28
Generated by autodE on: 2022-06-13. E = -724.755081 Ha
C     4.43893   0.73124  -1.22582
O     3.60282  -0.18481  -0.51701
C     2.27684   0.10942  -0.48145
O     1.82194   1.11247  -1.02971
C     1.53157  -0.89039   0.23618
C     2.17670  -2.02232   0.75923
N     2.72243  -2.96285   1.19623
N     0.12033  -0.80403   0.32306
C    -0.62328  -2.07321   0.27700
C    -0.47284   0.36474   0.39650
C    -1.87755   0.68229   0.22393
C    -2.79479  -0.06122  -0.55233
C    -4.11619   0.36331  -0.67205
C    -4.55122   1.52489  -0.02363
C    -3.64825   2.28203   0.73075
C    -2.32168   1.87455   0.84067
H     4.16793   0.77119  -2.29173
H     4.36689   1.74285  -0.79866
H     5.46267   0.35249  -1.11715
H    -0.05184  -2.82614   0.83155
H    -0.73487  -2.40737  -0.76335
H    -1.60117  -1.95015   0.75073
H     0.18611   1.20329   0.61679
H    -2.47336  -0.94889  -1.09430
H    -4.81241  -0.21447  -1.28369
H    -5.59065   1.84694  -0.11866
H    -3.97833   3.19736   1.22650
H    -1.61061   2.47180   1.41585
