43
Generated by autodE on: 2022-06-13. E = -1148.807215 Ha
C    -4.61460   1.15900  -0.48291
O    -3.18502   1.30868  -0.48857
C    -2.60067   1.56692   0.67943
O    -3.19344   1.67008   1.72908
C    -1.08466   1.73521   0.50594
C    -0.84920   3.09659  -0.19457
C     0.33983   3.20843  -1.09641
O    -1.60951   4.01681   0.03738
C    -0.50910   0.58884  -0.18619
C     0.13355  -0.42259  -0.35590
C     1.02196  -1.52411  -0.00074
C     2.48969  -1.25964  -0.38202
O     3.32269  -2.14089  -0.37015
O     2.74126   0.00854  -0.66974
C     4.10507   0.34798  -0.98198
C     0.63039  -2.83610  -0.70247
O     0.33404  -3.86202  -0.13609
O     0.66385  -2.68670  -2.02415
C     0.33903  -3.83970  -2.81992
C     0.93389  -1.67804   1.55123
C     1.07969  -0.37588   2.36258
C    -0.19559   0.46995   2.64039
C    -0.36282   1.80848   1.89256
H    -4.89954   0.95305  -1.52072
H    -4.90740   0.32249   0.16734
H    -5.09210   2.08471  -0.13150
H     1.21888   2.70988  -0.66184
H     0.55100   4.26264  -1.31639
H     0.10778   2.67689  -2.03515
H     4.10473   1.42434  -1.18556
H     4.44004  -0.21146  -1.86645
H     4.75638   0.11766  -0.12742
H     0.42337  -3.51764  -3.86375
H    -0.68539  -4.17427  -2.60390
H     1.04640  -4.65507  -2.61233
H    -0.03247  -2.15382   1.77318
H     1.71689  -2.39312   1.84360
H     1.47931  -0.68441   3.34047
H     1.86174   0.26134   1.91743
H    -0.17930   0.73424   3.70884
H    -1.09784  -0.14870   2.50673
H    -0.94482   2.51207   2.50389
H     0.62749   2.26158   1.73133
