71
Generated by autodE on: 2022-06-13. E = -1873.557636 Ha. Imaginary frequency = -231.1 cm-1
C   -29.63565   5.11064  11.25216
O   -29.20813   4.32262  10.12752
C   -28.78441   4.97947   9.05464
O   -28.70477   6.19050   8.99678
C   -28.51444   4.05452   7.85318
C   -29.80034   4.30762   6.96314
C   -29.86564   5.57774   6.16577
O   -30.69666   3.49057   6.95946
C   -28.41745   2.55542   8.24347
C   -27.64250   1.63109   7.29562
C   -28.13096   1.38544   5.85475
C   -28.10394   2.50087   4.79466
C   -26.80749   3.37656   4.73506
C   -25.59098   2.44492   4.64401
O   -24.70006   2.37657   5.46189
O   -25.66939   1.65898   3.57388
C   -24.59629   0.72431   3.37710
C   -26.90773   4.30437   3.50857
O   -27.90950   4.93058   3.23569
O   -25.78089   4.35629   2.81777
C   -25.73184   5.23090   1.67763
C   -26.78483   4.19662   5.96661
C   -27.31973   4.44955   7.05899
C   -25.74424   5.63995   8.27679
C   -25.75189   5.08807   9.64006
C   -25.58003   3.71503   9.90077
C   -25.69112   3.22441  11.20136
C   -25.96585   4.09484  12.26130
C   -26.13659   5.46080  12.01376
C   -26.04451   5.95180  10.71172
N   -24.72992   5.48034   7.41488
C   -23.58719   4.61319   7.74854
C   -24.88450   5.77790   6.06092
C   -23.84287   5.38084   5.17800
N   -23.00775   5.06337   4.42850
C   -25.74632   6.81773   5.47940
O   -25.72601   7.07763   4.28286
O   -26.55114   7.45700   6.33315
C   -27.47449   8.39852   5.76682
H   -30.52587   5.69611  10.98045
H   -28.83350   5.78407  11.57783
H   -29.87670   4.39358  12.04469
H   -30.91171   5.78992   5.90848
H   -29.41452   6.41449   6.71146
H   -29.29123   5.44297   5.23612
H   -29.44304   2.18872   8.38548
H   -27.92320   2.49899   9.22065
H   -27.64848   0.64232   7.78395
H   -26.58610   1.93478   7.27995
H   -27.52552   0.54887   5.46767
H   -29.16837   1.01241   5.88536
H   -28.23315   2.03258   3.80744
H   -28.94432   3.19264   4.91127
H   -24.53590   0.02955   4.22675
H   -23.64312   1.26129   3.26967
H   -24.83538   0.18142   2.45585
H   -26.00176   6.25104   1.97550
H   -26.41677   4.86830   0.89814
H   -24.69548   5.19543   1.32404
H   -26.40341   6.47771   8.08547
H   -25.39497   3.02592   9.07647
H   -25.57200   2.15468  11.38677
H   -26.05427   3.70762  13.27891
H   -26.35723   6.14388  12.83684
H   -26.20657   7.01290  10.51271
H   -22.68917   5.01425   7.26619
H   -23.76745   3.59171   7.38985
H   -23.43216   4.61554   8.82990
H   -28.08825   8.75046   6.60353
H   -28.10174   7.90836   5.00994
H   -26.93382   9.23928   5.30956
