24
Generated by autodE on: 2022-07-27. E = -667.424051 Ha
C     4.09065  -0.07581  -1.21416
O     3.27886   0.22268  -0.07020
C     1.95203   0.19926  -0.25446
O     1.42216  -0.06147  -1.32325
C     1.25958   0.61613   0.96261
N    -0.05067   0.65417   1.08904
C    -1.09840   0.14806   0.39145
C    -2.36182   0.78200   0.79071
C    -3.65675   0.36702   0.15247
O    -2.34020   1.65364   1.67231
C    -1.01761  -1.04413  -0.46589
C    -0.08105  -2.16439  -0.07301
O    -1.80716  -1.21047  -1.39406
H     3.92352   0.66552  -2.00925
H     3.86075  -1.08043  -1.59804
H     5.12914  -0.03039  -0.86703
H     1.83631   1.09343   1.75386
H    -0.40945   1.25770   1.85120
H    -3.80325  -0.72140   0.21775
H    -3.64845   0.62018  -0.91797
H    -4.48129   0.89008   0.65405
H     0.56395  -1.94149   0.78669
H     0.54432  -2.44372  -0.93268
H    -0.71615  -3.02970   0.17738
