24
Generated by autodE on: 2022-05-31. E = -667.432916 Ha
C     4.27949  -1.85774   0.68795
O     2.84431  -1.87478   0.71306
C     2.22422  -0.77125   0.29188
O     2.79216   0.23515  -0.10225
C     0.76548  -0.91871   0.35899
N     0.06622   0.11127  -0.03971
C    -1.24033   0.47321  -0.17664
C    -2.38362  -0.37086   0.15551
C    -2.15610  -1.75975   0.70027
O    -3.53900   0.03658  -0.00265
C    -1.32434   1.84475  -0.71012
C    -2.64608   2.50764  -0.96306
O    -0.26893   2.45130  -0.94947
H     4.66466  -1.05373   1.33175
H     4.64237  -1.70981  -0.33955
H     4.59926  -2.83484   1.06714
H     0.32062  -1.83962   0.71919
H     0.65023   0.91966  -0.35710
H    -1.58386  -1.72988   1.64120
H    -1.59645  -2.38135  -0.01695
H    -3.13368  -2.22098   0.88862
H    -2.46126   3.51836  -1.35023
H    -3.24024   2.55561  -0.03914
H    -3.23984   1.92692  -1.68380
