44
Generated by autodE on: 2022-05-31. E = -3553.168038 Ha. Imaginary frequency = -338.3 cm-1
C     3.88849  -1.68075  -0.53155
O     3.01385  -1.06060   0.41951
C     1.70212  -1.26967   0.25287
O     1.24450  -1.96935  -0.63130
C     0.93753  -0.51823   1.26787
N    -0.28895  -0.89086   1.67526
C    -1.35320  -1.24050   0.87909
C    -2.65815  -1.04425   1.54302
C    -3.92505  -1.24045   0.75799
O    -2.69538  -0.69501   2.72896
C    -1.29088  -2.42557  -0.03296
C    -0.61171  -3.65988   0.51797
O    -1.95137  -2.49223  -1.06099
C    -0.96836   0.92206  -0.50949
C    -1.44260   0.36108  -1.80730
C    -1.75814   2.08997   0.12624
C    -1.70257   2.14922   1.67034
C    -0.20415   2.42399   1.96473
C     0.40633   2.53951   0.55182
C    -0.75637   3.23579  -0.20784
C     0.37946   1.18426  -0.18403
Br    1.69605   1.11420  -1.62512
H     3.64784  -1.34894  -1.55116
H     3.80148  -2.77563  -0.47440
H     4.90261  -1.36650  -0.25953
H     1.54442  -0.02320   2.02528
H    -0.60910  -0.45129   2.54404
H    -4.00772  -2.26859   0.37622
H    -3.93982  -0.57110  -0.11593
H    -4.77971  -1.01780   1.40950
H     0.16445  -3.44897   1.26120
H    -0.20127  -4.25994  -0.30521
H    -1.40514  -4.24842   1.01257
H    -1.40499   1.16508  -2.56811
H    -0.80578  -0.45798  -2.16094
H    -2.47996   0.00847  -1.74913
H    -2.77202   2.17391  -0.28639
H    -2.32747   2.99221   2.00138
H    -2.08687   1.25874   2.16649
H    -0.06593   3.37892   2.49302
H     0.27279   1.64963   2.57857
H     1.38799   3.02642   0.52901
H    -1.05002   4.21174   0.21343
H    -0.55750   3.34712  -1.28369
