42
Generated by autodE on: 2022-10-26. E = -1016.362593 Ha
C    -3.60270  -1.14491   2.56381
O    -2.58940  -0.55269   1.75193
C    -2.83423  -0.51406   0.40511
O    -3.85878  -1.01821  -0.05661
C    -1.77513   0.12067  -0.31897
C    -1.64466   0.18375  -1.74296
C    -2.73436  -0.40758  -2.61340
O    -0.64879   0.70334  -2.29526
N    -0.72680   0.77437   0.41305
C    -1.10623   2.00776   1.11618
C     0.52267   0.40910   0.23433
C     0.84844  -0.94994  -0.23752
C     1.84016  -1.12518  -1.21624
C     2.17438  -2.40868  -1.65128
C     1.54134  -3.52325  -1.09387
C     0.56903  -3.35374  -0.09977
C     0.21410  -2.07451   0.32219
C     1.64446   1.32476   0.50945
C     1.66753   2.60977  -0.06207
C     2.76124   3.44686   0.15411
C     3.82869   3.01635   0.94976
C     3.81304   1.73575   1.51325
C     2.73449   0.88321   1.28010
H    -3.24799  -1.06514   3.59898
H    -3.75097  -2.20342   2.30202
H    -4.55965  -0.61244   2.45534
H    -2.46426  -0.24040  -3.66489
H    -3.71428   0.04350  -2.40213
H    -2.83723  -1.48748  -2.42658
H    -2.02875   1.80179   1.67018
H    -0.32013   2.31363   1.81484
H    -1.29837   2.80741   0.38780
H     2.33128  -0.25215  -1.64856
H     2.93452  -2.53816  -2.42463
H     1.81010  -4.52808  -1.42787
H     0.08663  -4.22442   0.34963
H    -0.53686  -1.94052   1.10121
H     0.84446   2.93093  -0.70133
H     2.78288   4.43801  -0.30382
H     4.68055   3.67781   1.12319
H     4.64884   1.39712   2.12913
H     2.72288  -0.12199   1.70497
