42
Generated by autodE on: 2022-10-26. E = -1016.358957 Ha
C     2.96929  -1.57481  -0.68837
O     1.89883  -1.15750   0.15333
C     0.97120  -2.10917   0.48561
O     1.15716  -3.28714   0.18623
C    -0.16138  -1.55922   1.18367
C    -1.23753  -2.34792   1.69132
C    -2.45108  -1.63961   2.27861
O    -1.25826  -3.59667   1.66699
N    -0.18114  -0.12490   1.32219
C     0.04697   0.39290   2.67940
C    -0.21341   0.65093   0.26260
C    -0.61861   0.11949  -1.05508
C     0.18921   0.39140  -2.17210
C    -0.17145  -0.09156  -3.43113
C    -1.35542  -0.81709  -3.58883
C    -2.17807  -1.06464  -2.48269
C    -1.80865  -0.61209  -1.21804
C     0.21187   2.06105   0.31467
C    -0.59242   3.04877  -0.28216
C    -0.17871   4.37990  -0.27905
C     1.05605   4.72854   0.27942
C     1.87574   3.74389   0.84116
C     1.45546   2.41470   0.86949
H     3.58219  -0.68236  -0.86663
H     2.58933  -1.96023  -1.64708
H     3.57783  -2.35428  -0.20539
H    -2.45206  -1.77169   3.37333
H    -3.35132  -2.14082   1.89229
H    -2.51548  -0.56709   2.05543
H    -0.24671   1.44549   2.75221
H     1.10667   0.27240   2.94319
H    -0.54937  -0.20559   3.37681
H     1.11072   0.96167  -2.04540
H     0.47109   0.10655  -4.29160
H    -1.64358  -1.18539  -4.57606
H    -3.11269  -1.61566  -2.60686
H    -2.45362  -0.80341  -0.36101
H    -1.54612   2.76806  -0.73263
H    -0.81622   5.14702  -0.72348
H     1.38495   5.77010   0.26795
H     2.84912   4.01174   1.25741
H     2.10389   1.64493   1.28903
