47
Generated by autodE on: 2022-10-26. E = -1226.234321 Ha
C     0.36744   2.86494   2.88722
O    -0.39726   1.70441   3.19625
C    -1.12367   1.07729   2.15753
C    -2.42251   1.86902   1.88623
F    -3.18669   1.25932   0.96048
F    -2.16843   3.10821   1.42868
F    -3.15747   1.99547   2.99915
C    -0.35622   0.90840   0.91588
C     0.26953   0.28132   0.09007
C     0.94565  -0.81845  -0.59846
C     0.03229  -1.44879  -1.67029
C     0.56235  -2.43105  -2.52191
C    -0.24036  -3.05596  -3.47737
C    -1.59009  -2.70665  -3.60126
C    -2.12514  -1.73058  -2.75861
C    -1.31981  -1.10676  -1.79842
C     2.24246  -0.32661  -1.26043
C     3.45453  -1.02003  -1.15630
C     4.59935  -0.55128  -1.81225
C     4.54798   0.61539  -2.57752
C     3.34007   1.31419  -2.68611
C     2.19990   0.84462  -2.03338
C     1.19849  -1.85840   0.54844
C    -0.01688  -2.20294   1.43314
C    -0.29041  -1.33261   2.69261
C    -1.47380  -0.34673   2.65706
H     0.96418   2.71909   1.97108
H     1.04997   3.02082   3.73395
H    -0.26414   3.75900   2.76660
H     1.61541  -2.70747  -2.44084
H     0.19152  -3.81731  -4.13148
H    -2.21829  -3.19261  -4.35151
H    -3.17726  -1.44800  -2.84392
H    -1.75278  -0.34942  -1.14363
H     3.51981  -1.93523  -0.56818
H     5.53647  -1.10563  -1.72004
H     5.44309   0.98043  -3.08662
H     3.28673   2.22914  -3.28110
H     1.25807   1.39165  -2.12451
H     1.56740  -2.77958   0.07443
H     2.01333  -1.47557   1.18234
H    -0.92724  -2.25912   0.81297
H     0.15476  -3.23078   1.78765
H     0.62306  -0.79288   2.99148
H    -0.50446  -2.02407   3.52161
H    -2.27871  -0.75218   2.02690
H    -1.88312  -0.21615   3.67033
