89
Generated by autodE on: 2022-10-26. E = -2242.536268 Ha. Imaginary frequency = -277.4 cm-1
C    -0.06077  49.01932 -21.61670
O    -0.94693  49.42497 -22.66104
C    -2.16293  48.85840 -22.70424
O    -2.46065  47.89223 -22.01807
C    -3.07655  49.57057 -23.64241
C    -4.43701  48.92554 -23.60275
C    -5.44199  49.49658 -22.62135
O    -4.67845  47.86441 -24.15550
C    -1.85182  49.32816 -25.54485
C    -1.39603  50.48639 -25.73435
C    -3.07644  51.83028 -24.54678
C    -4.06555  51.62284 -25.64760
C    -3.75478  51.99609 -26.96904
C    -4.71282  51.92022 -27.97483
C    -6.01583  51.49423 -27.68266
C    -6.34850  51.16534 -26.37005
C    -5.38285  51.23911 -25.35917
C    -2.71126  53.26223 -24.34042
C    -3.61470  54.27543 -24.71397
C    -3.28936  55.62402 -24.54706
C    -2.04979  55.98688 -24.01712
C    -1.14072  54.98897 -23.64442
C    -1.46996  53.64611 -23.79904
N    -2.99433  50.97980 -23.48844
C    -2.64387  51.51008 -22.14901
C    -0.32439  51.26219 -26.42346
O    -0.72984  52.62862 -26.42394
C     0.14600  53.67544 -26.80521
C     0.96973  51.10327 -25.56901
F     1.32821  49.81448 -25.42133
F     0.84110  51.60958 -24.33142
F     2.02012  51.72339 -26.13940
C    -0.01422  50.78412 -27.87763
C    -1.12689  49.99323 -28.57552
C    -0.93213  48.47492 -28.51691
C    -0.66541  47.83916 -27.15058
C    -1.80826  47.90272 -26.06301
C    -1.41335  46.90650 -24.94858
C    -2.27382  45.90649 -24.47365
C    -1.85624  44.99421 -23.50054
C    -0.56280  45.05855 -22.97921
C     0.30444  46.05488 -23.43644
C    -0.12008  46.96844 -24.40314
C    -3.08564  47.48256 -26.80469
C    -4.12910  48.37357 -27.06499
C    -5.23323  47.99023 -27.83420
C    -5.30992  46.70212 -28.36620
C    -4.26524  45.80276 -28.12566
C    -3.16608  46.19259 -27.35933
H    -0.45788  49.33500 -20.63949
H     0.08285  47.93171 -21.62052
H     0.88978  49.52745 -21.81841
H    -5.34055  50.57222 -22.43753
H    -6.46670  49.24439 -22.92723
H    -5.23253  48.98195 -21.66665
H    -2.74667  52.33692 -27.19443
H    -4.44280  52.19510 -28.99695
H    -6.76528  51.43100 -28.47474
H    -7.36526  50.85622 -26.11782
H    -5.68210  51.05125 -24.33441
H    -4.58758  54.01025 -25.12704
H    -4.01050  56.39174 -24.83630
H    -1.78972  57.04107 -23.89603
H    -0.16300  55.26045 -23.23997
H    -0.74159  52.88529 -23.53920
H    -3.18486  52.44978 -21.99036
H    -2.98838  50.79333 -21.39494
H    -1.57210  51.67850 -22.01228
H     0.87394  53.91505 -26.01337
H    -0.49266  54.55524 -26.96648
H     0.69107  53.46415 -27.73953
H     0.90773  50.18421 -27.88330
H     0.22016  51.68651 -28.45766
H    -2.10798  50.27485 -28.16993
H    -1.14688  50.28409 -29.63791
H    -0.05568  48.22468 -29.14063
H    -1.79211  47.98421 -28.99785
H    -0.45879  46.77122 -27.31636
H     0.24934  48.25926 -26.72004
H    -3.29203  45.84358 -24.84857
H    -2.55349  44.23056 -23.14692
H    -0.23361  44.34302 -22.22187
H     1.31827  46.12795 -23.03575
H     0.56700  47.74992 -24.72181
H    -4.08162  49.37729 -26.65606
H    -6.03529  48.70851 -28.01334
H    -6.17215  46.40089 -28.96607
H    -4.30315  44.79226 -28.54022
H    -2.35698  45.47915 -27.19645
