40
Generated by autodE on: 2022-05-30. E = -1078.556258 Ha
C    -2.09217  -0.19063  -2.81623
N    -1.45381  -0.29886  -1.51170
C    -0.42382  -1.32550  -1.30200
C    -1.05802  -2.71355  -1.14085
C     0.53529  -1.34552  -2.44334
N     1.23398  -1.32610  -3.36899
C     0.31217  -0.81036  -0.05950
C    -0.05385   0.45099   0.20164
C     0.31271   1.32198   1.39776
C     0.14420   2.75896   1.09124
N    -0.00521   3.88871   0.88383
C     1.74000   1.18745   1.75775
N     2.85439   1.13404   2.07009
C    -0.61169   0.99234   2.64272
C    -0.93041  -0.48237   2.87945
C     0.25170  -1.44038   3.12427
C     0.63347  -2.36813   1.96764
C     1.27505  -1.66626   0.73381
C     1.95868  -2.65808  -0.10198
N     2.52830  -3.45932  -0.71763
C    -1.04326   0.93551  -0.86739
C    -2.23618   1.62092  -0.31250
N    -3.18825   2.11956   0.11871
C    -0.34064   1.88184  -1.78938
N     0.21433   2.54432  -2.56162
H    -2.49220  -1.17103  -3.10411
H    -2.93574   0.51035  -2.74373
H    -1.40540   0.16070  -3.60747
H    -1.72582  -2.70241  -0.26982
H    -0.29262  -3.48851  -1.00934
H    -1.63674  -2.95977  -2.04136
H    -1.55398   1.53299   2.47945
H    -0.12280   1.44175   3.51925
H    -1.57591  -0.48249   3.77130
H    -1.56246  -0.86102   2.06087
H     1.13995  -0.88372   3.46541
H    -0.01448  -2.10496   3.96012
H     1.37386  -3.09492   2.33297
H    -0.24396  -2.94123   1.63440
H     2.08679  -1.02521   1.10675
