40
Generated by autodE on: 2022-05-30. E = -1078.461397 Ha. Imaginary frequency = -265.4 cm-1
C    -2.10705   0.05058  -2.45398
N    -0.67387   0.24824  -2.17879
C     0.12401  -0.83694  -2.22622
C    -0.32358  -2.09556  -2.91571
C     1.54433  -0.73457  -2.06922
N     2.70082  -0.82642  -1.97334
C     0.08888  -1.05661   0.17736
C    -0.14257   0.10279   0.55176
C    -0.31010   1.00344   1.72845
C    -1.74787   1.26788   1.94756
N    -2.87687   1.42802   2.15222
C     0.37920   2.30108   1.55636
N     0.94210   3.30930   1.46983
C     0.27757   0.29796   3.01200
C     1.66748  -0.31362   2.76381
C     1.72428  -1.85482   2.75878
C     0.62256  -2.64684   2.04824
C     0.49962  -2.44034   0.51243
C    -0.45151  -3.42639  -0.01788
N    -1.21366  -4.22081  -0.38265
C    -0.32786   1.37154  -1.45066
C    -1.32351   2.34457  -1.14794
N    -2.08903   3.16304  -0.83135
C     0.99874   1.89862  -1.49964
N     2.04660   2.40313  -1.53431
H    -2.22745  -0.53871  -3.36694
H    -2.58239   1.02360  -2.60425
H    -2.57213  -0.46812  -1.60216
H    -1.30025  -2.43536  -2.55393
H     0.41232  -2.88877  -2.74005
H    -0.38454  -1.92253  -4.00405
H    -0.45522  -0.46443   3.30800
H     0.29600   1.05408   3.80914
H     2.34840   0.03619   3.55365
H     2.08645   0.07997   1.82531
H     2.70380  -2.15967   2.35517
H     1.70532  -2.20107   3.80545
H     0.81833  -3.71800   2.21011
H    -0.36219  -2.43879   2.49352
H     1.47636  -2.64439   0.03723
