35
Generated by autodE on: 2022-06-17. E = -633.509406 Ha
C     3.52158  -1.61144   0.33111
N     2.28329  -1.11826  -0.23036
C     1.77842   0.08530   0.14068
O     2.40635   0.90780   0.82794
N     0.52065   0.38232  -0.34770
C    -0.30598   1.39642   0.34590
C    -0.16185   2.79031  -0.24811
C    -1.72544   0.80673   0.25245
C    -2.61650   1.16644   1.43318
C    -1.46672  -0.70658   0.00611
C    -2.65506  -1.40585  -0.64373
C    -1.07618  -1.44465   1.29293
N    -0.26275  -0.67816  -0.88142
C    -0.50283  -0.46227  -2.30915
H     4.30570  -0.84446   0.25837
H     3.42635  -1.89631   1.39450
H     3.84776  -2.49422  -0.23487
H     1.59305  -1.76723  -0.60063
H     0.01356   1.42778   1.40014
H    -0.81637   3.50139   0.28139
H    -0.43643   2.79284  -1.31465
H     0.87502   3.14623  -0.15294
H    -2.19689   1.19917  -0.66402
H    -3.60971   0.69971   1.33876
H    -2.76788   2.25644   1.48490
H    -2.17636   0.84651   2.38990
H    -2.40454  -2.44290  -0.91638
H    -3.48945  -1.43952   0.07227
H    -3.00839  -0.88103  -1.54223
H    -0.77318  -2.47481   1.05313
H    -1.92557  -1.49144   1.98948
H    -0.24055  -0.95638   1.81637
H     0.47171  -0.35663  -2.80553
H    -1.10669   0.43590  -2.53630
H    -1.00203  -1.34146  -2.73830
