23
Generated by autodE on: 2022-06-17. E = -476.155073 Ha
C     3.64910   0.63007   0.25403
N     2.50355   0.17643  -0.50652
C     1.29730  -0.04370   0.13503
O     1.26589  -0.24639   1.37187
N     0.23986  -0.00950  -0.71236
N    -0.93856  -0.42160  -0.14213
C    -1.01002  -1.75946   0.47879
C    -2.02035   0.29777  -0.28319
C    -1.91123   1.63454  -0.93183
C    -3.34050  -0.23988   0.16391
H     4.53658   0.63623  -0.39407
H     3.84411  -0.05302   1.09230
H     3.52404   1.64674   0.67443
H     2.41259   0.55261  -1.44482
H    -1.72378  -2.38102  -0.07914
H    -1.33836  -1.68005   1.52275
H    -0.01946  -2.21690   0.44045
H    -1.08281   2.21110  -0.49338
H    -2.85201   2.19069  -0.83859
H    -1.67028   1.51708  -2.00280
H    -4.12992   0.50231  -0.00128
H    -3.32537  -0.50560   1.23349
H    -3.60159  -1.15874  -0.38877
