23
Generated by autodE on: 2022-07-27. E = -476.155001 Ha
C     3.40885  -0.18602   1.46564
N     2.22195   0.57446   1.13502
C     1.27534   0.03289   0.28352
O     1.58513  -0.89873  -0.49575
N     0.05929   0.61822   0.41049
N    -0.84037   0.24166  -0.55455
C    -0.48754   0.41074  -1.97913
C    -2.05147  -0.11280  -0.21420
C    -3.09347  -0.32524  -1.26325
C    -2.37531  -0.24836   1.23356
H     3.92636  -0.49971   0.54844
H     3.19721  -1.09773   2.05725
H     4.09569   0.44530   2.04645
H     1.83647   1.14978   1.87700
H     0.53454   0.78855  -2.04517
H    -1.17590   1.13249  -2.43982
H    -0.56010  -0.54804  -2.50775
H    -2.75981  -1.04345  -2.02888
H    -3.31778   0.61970  -1.78891
H    -4.01979  -0.69731  -0.81058
H    -2.35686   0.74217   1.72048
H    -3.36787  -0.69431   1.37133
H    -1.61210  -0.85416   1.74520
