35
Generated by autodE on: 2022-06-17. E = -633.425639 Ha. Imaginary frequency = -379.4 cm-1
C     3.96396  -0.01893   1.22729
N     2.57218   0.27565   0.96333
C     1.82753  -0.52463   0.13046
O     2.38253  -1.36734  -0.60789
N     0.48837  -0.30215   0.23683
C    -0.55338   1.66266   0.53187
C     0.35329   2.49051  -0.33345
C    -1.84523   1.29961   0.15187
C    -2.98461   1.31713   1.14430
C    -1.62974  -0.86605  -0.30205
C    -2.70273  -1.11953  -1.32159
C    -1.87203  -1.46532   1.05896
N    -0.33812  -0.79931  -0.71074
C    -0.04948  -0.50723  -2.12132
H     4.51863  -0.12822   0.28424
H     4.10650  -0.94914   1.80873
H     4.40664   0.81191   1.79320
H     2.05683   0.80664   1.65673
H    -0.34064   1.70370   1.60599
H     0.14732   2.34070  -1.40315
H     1.41773   2.28759  -0.14923
H     0.18735   3.56282  -0.11532
H    -2.12640   1.55767  -0.87693
H    -3.81735   0.66138   0.84493
H    -3.40286   2.33593   1.23627
H    -2.65448   1.01137   2.14882
H    -3.68289  -0.90236  -0.87490
H    -2.59505  -0.51005  -2.22699
H    -2.70784  -2.18358  -1.61946
H    -1.23409  -1.02336   1.83105
H    -2.92378  -1.36552   1.35062
H    -1.64465  -2.54570   1.00652
H     1.03385  -0.44925  -2.25050
H    -0.51310   0.44333  -2.42709
H    -0.43400  -1.31458  -2.75754
