22
Generated by autodE on: 2022-06-01. E = -588.055661 Ha
C     4.42031   0.57397   0.11963
N     3.85461  -0.73180   0.40382
C     2.56957  -1.08018   0.23080
O     2.08359  -2.17466   0.53107
C     1.71078  -0.08124  -0.42480
N     0.75802   0.60341  -0.23053
N    -0.19689   1.38512  -0.13374
C    -1.48685   0.80773  -0.12547
C    -2.57763   1.69123  -0.16298
C    -3.87961   1.19128  -0.16033
C    -4.10732  -0.18923  -0.11805
C    -3.01878  -1.06826  -0.07371
C    -1.71165  -0.58043  -0.07425
H     5.46519   0.45844  -0.19812
H     3.86482   1.05339  -0.69933
H     4.39019   1.23868   0.99805
H     4.43035  -1.42206   0.88129
H    -2.38522   2.76527  -0.19893
H    -4.72324   1.88481  -0.19244
H    -5.12781  -0.57831  -0.11433
H    -3.18812  -2.14694  -0.03212
H    -0.86659  -1.27041  -0.01997
