27
Generated by autodE on: 2022-06-01. E = -520.325047 Ha
C     3.59271  -1.02108   0.32426
N     2.17872  -0.94070   0.02502
C     1.51942   0.24301   0.01974
O     2.12479   1.30588   0.25359
C     0.07497   0.17244  -0.27711
C    -0.86589   1.10856   0.01538
C    -0.75341   2.43801   0.67442
C    -2.21619   0.48458  -0.29841
C    -2.44873  -0.59084   0.81473
C    -1.38629  -1.67632   0.47755
C    -0.66812  -1.07088  -0.76927
C    -1.85603  -0.41309  -1.49708
H     3.81325  -0.66970   1.34595
H     4.18344  -0.40633  -0.37341
H     3.91763  -2.06503   0.23468
H     1.66247  -1.79742  -0.13526
H    -1.14485   3.22754   0.00892
H    -1.38577   2.46016   1.57953
H     0.27870   2.68414   0.94686
H    -3.04232   1.19807  -0.41692
H    -2.32658  -0.16459   1.82108
H    -3.47118  -0.99091   0.74214
H    -1.86047  -2.63537   0.21960
H    -0.68005  -1.85977   1.29984
H    -0.07312  -1.78970  -1.34804
H    -2.65236  -1.12512  -1.76455
H    -1.55202   0.15783  -2.38699
