19
Generated by autodE on: 2022-05-30. E = -514.709236 Ha
C     0.48092   2.47365  -0.65664
N    -0.41615   1.57160  -0.42724
C    -0.42240   0.22839  -0.06703
C    -1.77682  -0.26853   0.04631
C    -2.04836  -1.69984   0.42587
O    -2.73187   0.50588  -0.17551
C     0.77103  -0.54996   0.15889
O     0.80561  -1.73483   0.47820
O     1.91044   0.16295  -0.01716
C     3.14076  -0.53633   0.18916
H     1.53994   2.24073  -0.57962
H     0.12828   3.46959  -0.92848
H    -1.41101   1.85425  -0.51689
H    -1.61400  -1.93369   1.40908
H    -1.58418  -2.39093  -0.29297
H    -3.13496  -1.85620   0.44903
H     3.23522  -1.37832  -0.51240
H     3.20745  -0.91669   1.21915
H     3.93785   0.19459   0.00718
