29
Generated by autodE on: 2022-10-07. E = -1040.982833 Ha
C     4.14028   0.76431  -0.01621
N     2.80178   0.46096  -0.48014
C     2.16060  -0.64950  -0.09309
O     2.69720  -1.57264   0.53113
C     0.69702  -0.79328  -0.53080
C     0.60030  -1.94485  -1.52832
O     0.27602   0.41846  -1.21131
C    -0.83218   1.01562  -0.57416
C    -1.73661   1.55302  -1.62608
N    -2.34081   2.14406  -2.42084
C    -0.40032   2.22830   0.17921
N    -0.10740   3.24287   0.65838
C    -1.46191  -0.06119   0.34606
C    -2.57244  -0.90461  -0.33217
O    -2.64634  -0.87745  -1.58723
O    -3.27278  -1.58380   0.45193
C    -0.25499  -0.97483   0.68348
C     0.36428  -0.60991   2.05152
O     0.88070   0.53565   2.14632
O     0.28364  -1.46936   2.96074
H     4.14152   1.03496   1.05363
H     4.54306   1.60514  -0.59463
H     4.79765  -0.10653  -0.14834
H     2.23688   1.19271  -0.89918
H     1.22335  -1.73256  -2.41041
H     0.95540  -2.87176  -1.05824
H    -0.44281  -2.06910  -1.84699
H    -1.88187   0.39883   1.24882
H    -0.59613  -2.01429   0.73679
