19
Generated by autodE on: 2022-10-07. E = -585.841806 Ha
C     3.54400  -1.40483  -0.52804
N     2.20945  -0.87755  -0.33184
C     1.85120   0.36866  -0.68175
O     2.59547   1.20553  -1.20126
C     0.42004   0.74082  -0.40396
C    -0.10645   2.06898  -0.74927
O    -0.27201  -0.18257   0.14759
C    -1.56026  -0.27577   0.56357
C    -1.88526  -1.51809   1.13651
N    -2.17522  -2.54390   1.61637
C    -2.51493   0.74918   0.45266
N    -3.36799   1.54731   0.39848
H     3.51444  -2.31081  -1.15274
H     4.00851  -1.66338   0.43649
H     4.15820  -0.64676  -1.02702
H     1.50975  -1.48064   0.09034
H    -0.47871   2.58082   0.15469
H     0.68762   2.66479  -1.21017
H    -0.95504   1.97573  -1.44819
