10
Generated by autodE on: 2022-10-07. E = -455.051688 Ha
O    -1.27568  -1.70992  -1.40717
C    -1.66455  -0.65464  -0.83504
O    -2.83997  -0.19349  -0.85117
C    -0.64967   0.15473  -0.05328
C     0.64962  -0.15475   0.05342
C     1.66454   0.65463   0.83503
O     1.27562   1.70969   1.40757
O     2.84008   0.19374   0.85066
H    -1.02699   1.05358   0.44619
H     1.02691  -1.05360  -0.44605
