37
Generated by autodE on: 2022-06-01. E = -3660.762342 Ha
C     4.23104   1.71921   0.01015
O     3.10023   0.82607   0.00312
C     2.18609   1.02566  -0.92409
O     2.21565   1.86864  -1.79011
C     1.01527   0.07712  -0.76011
O     0.28081  -0.01359  -1.98142
C    -0.64906  -0.96211  -1.53516
C    -1.51110  -1.41649  -2.62395
N    -2.21806  -1.76098  -3.47264
O     0.18802  -2.04202  -1.06967
C     1.29572  -1.42828  -0.53878
O     2.21295  -2.01739  -0.05884
C    -1.34931  -0.31690  -0.27662
C    -1.95889  -1.47114   0.55504
C    -3.38524  -1.84901   0.25763
O    -1.28274  -2.09865   1.34099
C    -2.35158   0.82114  -0.61441
C    -2.83926   1.41180   0.73631
C    -1.63378   2.27404   1.20670
C    -0.56084   1.98390   0.13683
C    -1.45800   1.96787  -1.11925
C    -0.09625   0.50642   0.27125
Br    0.57795   0.15185   2.08485
H     3.88924   2.75527   0.14072
H     4.85011   1.40737   0.85799
H     4.78923   1.62571  -0.93153
H    -3.65397  -2.72459   0.86168
H    -3.49051  -2.09321  -0.81204
H    -4.08101  -1.02444   0.46428
H    -3.15540   0.49591  -1.28551
H    -3.10654   0.64365   1.47424
H    -3.73612   2.02331   0.56772
H    -1.87143   3.34618   1.17403
H    -1.30735   2.03719   2.22555
H     0.28049   2.68766   0.13905
H    -0.94208   1.78410  -2.06302
H    -2.02496   2.90578  -1.20321
