22
Generated by autodE on: 2022-06-01. E = -2999.170031 Ha
C     2.76630   0.81301  -1.79696
C     2.00289   0.30384  -0.59946
O     2.53737  -0.41093   0.24314
C     0.59168   0.71612  -0.49579
C    -0.39370   0.18575   0.27169
Br   -0.31105  -1.25574   1.47422
C    -1.71784   0.79931  -0.12508
C    -2.03526   0.21706  -1.54311
C    -0.93601   0.85573  -2.43756
C    -0.11706   1.71106  -1.42022
C    -1.24091   2.21902  -0.49485
H     2.85652   1.91057  -1.74374
H     3.76814   0.36452  -1.81776
H     2.22817   0.58226  -2.73021
H    -2.52582   0.69445   0.60787
H    -3.04262   0.53506  -1.84870
H    -2.01339  -0.88187  -1.54386
H    -1.37478   1.50563  -3.20901
H    -0.30485   0.11073  -2.94197
H     0.53284   2.46604  -1.87668
H    -0.86563   2.78472   0.37026
H    -2.00896   2.80414  -1.02261
