15
Generated by autodE on: 2022-06-01. E = -661.541415 Ha
C     3.72468   0.81256  -0.07998
O     2.29031   0.76985  -0.13327
C     1.72078  -0.40281   0.16077
O     2.32872  -1.41657   0.45939
C     0.27439  -0.35111   0.09025
O    -0.38222   0.82052  -0.23956
C    -1.65370   0.59091  -0.21226
C    -2.59221   1.61420  -0.50886
N    -3.37086   2.44065  -0.75076
O    -1.97176  -0.61179   0.09823
C    -0.65383  -1.37306   0.33789
O    -0.70080  -2.52558   0.64508
H     4.00415   1.83465  -0.35959
H     4.15795   0.09182  -0.78815
H     4.07823   0.58597   0.93624
