37
Generated by autodE on: 2022-06-01. E = -3660.704413 Ha. Imaginary frequency = -315.6 cm-1
C     4.11509   1.92049  -0.02810
O     3.19668   0.83371  -0.22933
C     2.22949   1.02576  -1.12156
O     2.08146   2.02462  -1.79939
C     1.30792  -0.10844  -1.13963
O     0.32904  -0.12386  -2.08525
C    -0.44499  -1.16160  -1.77680
C    -1.48767  -1.53833  -2.67202
N    -2.38837  -1.81942  -3.34847
O     0.26066  -2.09155  -1.12018
C     1.43272  -1.44527  -0.60879
O     2.20724  -2.02171   0.09916
C    -1.44667  -0.16637   0.00005
C    -1.99579  -1.44061   0.55636
C    -3.44348  -1.74673   0.27525
O    -1.28314  -2.21562   1.17654
C    -2.34755   0.94564  -0.56234
C    -2.94341   1.67033   0.68810
C    -1.71338   2.41046   1.28207
C    -0.55773   2.01545   0.30344
C    -1.33325   2.00758  -1.02732
C    -0.33848   0.53169   0.55546
Br    0.58500   0.07168   2.14750
H     3.57503   2.81441   0.31518
H     4.81622   1.57909   0.74131
H     4.65004   2.14676  -0.96123
H    -3.69566  -2.72595   0.70152
H    -3.62888  -1.75414  -0.81031
H    -4.09910  -0.97452   0.70502
H    -3.08830   0.60565  -1.29502
H    -3.40345   0.97569   1.40291
H    -3.71988   2.37647   0.36095
H    -1.83667   3.50201   1.24630
H    -1.49495   2.12858   2.32037
H     0.33901   2.64021   0.38056
H    -0.74091   1.73699  -1.90267
H    -1.81570   2.97746  -1.21378
