42
Generated by autodE on: 2022-06-21. E = -1103.073761 Ha
C    -1.50763   2.92270  -0.44484
N    -1.43139   1.58562   0.10542
C    -1.15365   0.50143  -0.62613
O    -1.14488   0.45328  -1.85945
C    -0.82835  -0.77198   0.17392
C    -1.75560  -1.89524  -0.31060
O    -1.39292  -2.99185  -0.67608
O    -3.02515  -1.50902  -0.24440
C    -4.02189  -2.46822  -0.63796
O    -1.08140  -0.56359   1.57550
N     0.10830  -0.85440   2.36895
C    -0.00173  -2.23104   2.83991
C     1.20614  -0.61446   1.43232
C     1.55751   0.88122   1.37032
C     2.02081   1.32989   0.00647
C     2.54268   2.68597  -0.21696
N     2.51208   3.52727   0.84921
O     2.98634   3.07954  -1.31485
C     1.94389   0.50295  -1.07522
N     1.42788  -0.75139  -1.05571
C     1.29933  -1.53812  -2.27195
C     0.68126  -1.17531   0.09680
H    -1.61674   2.85781  -1.53406
H    -0.59113   3.48982  -0.21149
H    -2.37075   3.46293  -0.02981
H    -1.37689   1.46500   1.11334
H    -3.97062  -3.35600   0.00812
H    -4.98734  -1.96410  -0.51890
H    -3.87003  -2.76357  -1.68574
H    -0.04061  -2.98424   2.03372
H    -0.90825  -2.32300   3.45279
H     0.86867  -2.43800   3.47834
H     2.07435  -1.20030   1.75758
H     2.33892   1.07543   2.12315
H     0.68277   1.46831   1.69440
H     2.84805   4.47612   0.72815
H     2.13499   3.25734   1.74853
H     2.32476   0.84360  -2.03942
H     1.54973  -2.59048  -2.06911
H     0.27570  -1.49214  -2.67516
H     1.99541  -1.15262  -3.02814
H     0.71203  -2.27014   0.12316
