20
Generated by autodE on: 2022-06-21. E = -457.715306 Ha
C    -3.06533  -0.29823   0.79002
N    -1.80963  -0.26632   0.05862
C    -1.79904  -0.57594  -1.30707
C    -0.67613  -0.56986  -2.04271
C     0.67995  -0.23110  -1.47449
C     0.57014   0.08912   0.00748
C     1.75464   0.45446   0.80046
N     2.93252   0.49815   0.12798
O     1.71322   0.71316   2.02076
C    -0.62786   0.05106   0.65691
H    -3.79074   0.41204   0.36110
H    -3.51255  -1.30540   0.76613
H    -2.88285  -0.02190   1.83590
H    -2.77479  -0.82291  -1.72946
H    -0.74838  -0.82201  -3.10316
H     1.12410   0.61942  -2.03132
H     1.38526  -1.06990  -1.64683
H     3.00612   0.30708  -0.86310
H     3.77191   0.75267   0.63682
H    -0.67856   0.28417   1.72166
