27
Generated by autodE on: 2023-01-01. E = -628.629197 Ha
C    -3.44687  -0.90773  -0.65897
N    -2.54480  -0.82912   0.47067
C    -1.55355   0.08917   0.56958
O    -1.31104   0.91732  -0.32127
C    -0.80780   0.07588   1.84657
C    -1.46243  -0.35477   3.12405
N     0.42057   0.58416   1.94170
N     1.36978   0.96111   1.11883
C     1.47293   0.43086  -0.15743
C     1.04822  -0.86034  -0.55418
C     1.35454  -1.35027  -1.82251
C     2.06013  -0.57010  -2.74726
C     2.47868   0.71136  -2.37005
C     2.19944   1.19989  -1.09512
H    -3.18131  -0.12494  -1.37861
H    -3.37029  -1.88682  -1.15785
H    -4.49247  -0.76172  -0.34361
H    -2.67294  -1.49295   1.22666
H    -2.47580   0.06478   3.22080
H    -0.86746  -0.03391   3.99304
H    -1.55308  -1.45450   3.18403
H     0.69449   0.76133   2.91449
H     0.49471  -1.49612   0.13771
H     1.02592  -2.35640  -2.09657
H     2.27913  -0.95553  -3.74545
H     3.03340   1.33610  -3.07511
H     2.54133   2.19184  -0.79134
