27
Generated by autodE on: 2022-12-31. E = -628.650229 Ha
C    -4.94194   1.13711  -0.24445
N    -3.93388   0.10516  -0.11167
C    -2.62096   0.40604  -0.08287
O    -2.21519   1.58492  -0.16479
C    -1.66148  -0.70651   0.04417
C    -1.94771  -2.16104   0.14692
N    -0.40390  -0.29400   0.07775
N     0.64478  -1.04922   0.23794
C     1.87365  -0.41211   0.11429
C     2.08704   0.87264  -0.44039
C     3.37425   1.40769  -0.50987
C     4.48028   0.68441  -0.05032
C     4.28185  -0.59684   0.48102
C     3.00167  -1.13840   0.56041
H    -4.82018   1.69812  -1.18496
H    -4.88899   1.85890   0.58639
H    -5.93247   0.66661  -0.24047
H    -4.23166  -0.85965  -0.03268
H    -1.33183  -2.71756  -0.57957
H    -1.67317  -2.54475   1.14585
H    -3.00181  -2.40154  -0.03683
H    -0.32476   0.73511  -0.01420
H     1.25788   1.45646  -0.84663
H     3.51397   2.40119  -0.94385
H     5.48447   1.10899  -0.11417
H     5.13505  -1.17899   0.83861
H     2.84035  -2.13468   0.97776
