43
Generated by autodE on: 2022-12-31. E = -1090.800168 Ha
C     3.50137  -2.34021  -3.71888
N     3.20518  -1.85753  -2.38464
C     1.95289  -1.63801  -1.97261
O     0.95436  -1.83729  -2.67213
C     1.80978  -1.16602  -0.50815
O     3.10572  -0.82193  -0.03657
C     3.16387  -0.00415   1.12248
C     0.83093  -0.07976  -0.41751
C    -0.19665   0.49127  -0.12944
C    -1.50956   0.67563   0.47831
C    -2.41299   1.60400  -0.35147
O    -3.48747   1.29517  -0.81094
O    -1.84752   2.80025  -0.49302
C    -2.58575   3.78806  -1.23280
C    -1.43241   1.30119   1.88352
O    -2.41763   1.72602   2.44856
O    -0.21575   1.28124   2.40661
C    -0.07305   1.79545   3.74362
C    -2.14164  -0.74688   0.60698
C    -1.22710  -1.82744   1.21571
C    -0.28821  -2.61480   0.25736
C     1.22605  -2.34449   0.34622
H     2.94409  -3.26492  -3.93208
H     3.23094  -1.59708  -4.48674
H     4.57566  -2.54795  -3.79224
H     3.95378  -1.60750  -1.74617
H     2.57816  -0.42279   1.95797
H     4.22044   0.04481   1.41893
H     2.79879   1.01600   0.91513
H    -2.76591   3.43825  -2.25903
H    -3.54532   3.99351  -0.73738
H    -1.95984   4.68732  -1.24022
H    -0.68949   1.21114   4.44088
H    -0.37430   2.85165   3.77626
H     0.98916   1.69104   3.99042
H    -2.46397  -1.04843  -0.40019
H    -3.05242  -0.63445   1.21346
H    -1.90479  -2.55897   1.68132
H    -0.64332  -1.40150   2.04867
H    -0.41408  -3.68405   0.48695
H    -0.62264  -2.49630  -0.78428
H     1.78779  -3.24466   0.05146
H     1.49590  -2.13188   1.39216
