35
Generated by autodE on: 2022-06-11. E = -5843.194166 Ha
C     3.61641   1.36048   0.40304
C     2.86143   0.90070   1.61560
O     3.40898   0.56521   2.64754
C     1.31481   0.89176   1.51009
C     0.85949   2.34704   1.72573
C     1.23344   3.00921   2.90569
C     0.82280   4.32252   3.14204
C     0.03415   4.99373   2.20168
C    -0.33750   4.34139   1.02364
C     0.07474   3.02633   0.78548
C     0.86104   0.35371   0.23265
C     0.20232  -0.28569  -0.56003
C    -0.85719  -1.16377  -0.96380
Br   -1.74954  -0.50988  -2.62209
Br   -0.09752  -2.97462  -1.35755
C    -1.88887  -1.26021   0.17355
C    -1.30875  -1.52736   1.57816
C    -0.83017  -0.31793   2.43070
C     0.68524  -0.06568   2.57321
H     3.63239   0.53425  -0.32799
H     4.64844   1.61907   0.67320
H     3.11301   2.21074  -0.08026
H     1.85285   2.49749   3.64467
H     1.12222   4.82377   4.06546
H    -0.28743   6.02125   2.38676
H    -0.95340   4.85537   0.28188
H    -0.22252   2.52492  -0.13675
H    -2.43592  -0.30384   0.18219
H    -2.61240  -2.04334  -0.09606
H    -2.12562  -2.01130   2.13459
H    -0.51137  -2.28596   1.51274
H    -1.20221  -0.49089   3.45183
H    -1.33315   0.60317   2.09086
H     1.22886  -1.02216   2.52975
H     0.89418   0.36907   3.56034
