46
Generated by autodE on: 2022-06-02. E = -1296.533964 Ha
C     2.29384   2.87682   2.24222
N     2.22031   1.73106   1.36136
C     1.58091   1.80429   0.18918
O     1.05112   2.84873  -0.23187
C     1.46384   0.56183  -0.62494
C     1.93030  -0.71256  -0.55330
C     2.86555  -1.36267   0.39076
C     3.40165  -2.71144   0.00557
O     3.22284  -0.82145   1.43710
C     1.22001  -1.44682  -1.69028
O     1.10766  -0.40927  -2.67719
C     0.51796   0.57076  -1.81334
C    -0.80283  -0.17573  -1.43259
C    -0.30442  -1.63978  -1.35425
C    -0.80152  -2.06171   0.03452
C    -0.36703  -3.37546   0.60948
O    -2.33150  -2.13148  -0.18087
C    -2.75366  -0.86328  -0.19971
O    -3.89970  -0.51851  -0.35343
C    -1.46753  -0.00195  -0.03133
C    -1.69304   1.42569   0.40849
O    -1.39179   1.88860   1.48675
O    -2.27053   2.11884  -0.56757
C    -2.50940   3.51463  -0.31405
N    -0.66548  -0.87585   0.83572
C    -1.05619  -0.98870   2.24019
H     2.85587   2.59958   3.14228
H     2.79698   3.72702   1.75457
H     1.28532   3.20924   2.53829
H     2.62531   0.82529   1.62605
H     2.58364  -3.42729  -0.16517
H     3.95297  -2.62672  -0.94588
H     4.06937  -3.08488   0.79173
H     1.71295  -2.33184  -2.10039
H     0.37881   1.53256  -2.31191
H    -1.53593   0.00008  -2.22670
H    -0.74438  -2.28879  -2.11911
H    -1.00084  -3.66082   1.45950
H     0.67285  -3.30307   0.95300
H    -0.43202  -4.15629  -0.16027
H    -1.55519   4.02468  -0.12255
H    -2.98034   3.90752  -1.22177
H    -3.17781   3.63676   0.54962
H    -2.11225  -1.28658   2.38284
H    -0.89330  -0.02761   2.73612
H    -0.41504  -1.73552   2.72560
