25
Generated by autodE on: 2022-06-02. E = -668.367383 Ha
C     3.62514  -1.23483  -0.22550
N     2.22697  -0.98289   0.05147
C     1.73069   0.26279   0.03866
O     2.42441   1.27520  -0.15694
C     0.27533   0.42754   0.28585
C    -0.81913  -0.36762   0.19731
C    -0.97280  -1.78873  -0.15426
C    -2.34679  -2.23335  -0.56541
O    -0.03217  -2.58400  -0.10897
C    -2.01112   0.61624   0.38807
C    -2.05871   1.51370  -0.86864
C    -0.97227   2.28550  -0.77749
C    -0.28798   1.84547   0.53474
O    -1.42990   1.51739   1.34042
H     3.83303  -2.30107  -0.07324
H     4.26889  -0.64656   0.44653
H     3.89115  -0.96598  -1.26185
H     1.55631  -1.75703   0.11282
H    -3.02366  -2.18086   0.30383
H    -2.75980  -1.55877  -1.33276
H    -2.31268  -3.26380  -0.94069
H    -2.95296   0.18760   0.74267
H    -2.80834   1.44592  -1.65600
H    -0.57353   3.02564  -1.46978
H     0.38928   2.55309   1.02102
