46
Generated by autodE on: 2022-06-02. E = -1296.465950 Ha. Imaginary frequency = -468.4 cm-1
C     1.99496   3.24009   1.86074
N     2.06630   2.00729   1.10545
C     1.36986   1.84730  -0.02637
O     0.68832   2.74847  -0.54537
C     1.43295   0.52287  -0.70545
C     1.87778  -0.72807  -0.40043
C     2.68106  -1.22976   0.72938
C     3.09825  -2.67095   0.69923
O     3.04727  -0.49564   1.65015
C     1.45481  -1.57742  -1.61266
O     1.67870  -0.62075  -2.67341
C     0.82350   0.39622  -2.10212
C    -0.48753  -0.38225  -1.98526
C    -0.10208  -1.68753  -1.65540
C    -1.14993  -2.16530  -0.00823
C    -0.85179  -3.57818   0.36155
O    -2.38643  -1.96972  -0.62322
C    -2.70811  -0.61830  -0.52985
O    -3.67352  -0.16336  -1.11177
C    -1.70206  -0.05812   0.34130
C    -1.67931   1.29571   0.88584
O    -1.08656   1.63279   1.89864
O    -2.40186   2.13981   0.13950
C    -2.44021   3.50631   0.57324
N    -0.97895  -1.11400   0.85085
C    -0.15887  -1.11896   2.05410
H     2.71117   3.19200   2.69037
H     2.24027   4.10495   1.22574
H     0.98361   3.39613   2.27072
H     2.52961   1.17472   1.49104
H     2.23040  -3.33254   0.56305
H     3.76509  -2.84045  -0.16272
H     3.62516  -2.92369   1.62740
H     2.00178  -2.50725  -1.78606
H     0.79728   1.31318  -2.69542
H    -1.39645  -0.05917  -2.48667
H    -0.52622  -2.55549  -2.16391
H    -1.47876  -3.89091   1.21145
H     0.20382  -3.70022   0.62902
H    -1.07072  -4.22455  -0.49801
H    -1.43202   3.94201   0.53975
H    -3.10094   4.02455  -0.13132
H    -2.84159   3.57920   1.59418
H    -0.81332  -1.07911   2.93747
H     0.51084  -0.25726   2.07693
H     0.42279  -2.04491   2.08597
