52
Generated by autodE on: 2022-06-26. E = -1341.848413 Ha
C     0.31805   4.72010   0.38261
O     0.61400   3.43884  -0.19167
C    -0.19199   3.02285  -1.16272
O    -1.07366   3.70578  -1.64248
C     0.14476   1.62659  -1.67661
O     1.45021   1.24770  -1.28792
C     1.56846  -0.16171  -1.01214
C     2.72728  -0.71298  -1.83648
C     1.81218  -0.37415   0.48427
C     1.61570   0.66487   1.40145
C     1.73974   0.43493   2.77598
C     2.07535  -0.83361   3.25254
C     2.31003  -1.86780   2.34025
C     2.18646  -1.63866   0.96875
C     0.17316  -0.74071  -1.48569
O     0.28322  -0.96885  -2.86390
C    -0.70327  -1.73645  -3.55581
C    -0.21590  -2.00947  -0.72544
O     0.13422  -3.09238  -1.16980
C    -0.96325  -1.89738   0.55071
C    -1.15196  -3.15360   1.34131
C    -1.41726  -0.69761   1.01448
C    -2.08766  -0.58208   2.34733
C    -1.21250   0.55356   0.25021
O    -1.49799   1.64644   0.71907
C    -0.77451   0.45749  -1.21876
O    -1.94144   0.24631  -1.97527
C    -2.93646   1.26399  -2.05356
H    -0.68275   4.70583   0.83799
H     0.36353   5.50661  -0.38374
H     1.08269   4.88952   1.14909
H     0.05852   1.67692  -2.77496
H     2.75690  -1.80973  -1.79027
H     2.62351  -0.41181  -2.88449
H     3.67186  -0.31631  -1.43739
H     1.34968   1.65538   1.03978
H     1.56837   1.25659   3.47542
H     2.16353  -1.01556   4.32606
H     2.58814  -2.86216   2.69701
H     2.36054  -2.46394   0.27851
H    -0.25302  -2.68065  -3.90065
H    -1.03793  -1.15535  -4.42807
H    -1.57929  -1.96339  -2.93760
H    -0.76448  -4.02423   0.80050
H    -2.21806  -3.31476   1.56750
H    -0.63016  -3.07574   2.30915
H    -2.98751  -1.21708   2.38650
H    -2.37248   0.45465   2.55916
H    -1.41395  -0.93625   3.14466
H    -3.24913   1.62079  -1.05956
H    -2.58571   2.12029  -2.64575
H    -3.79756   0.79858  -2.55167
