26
Generated by autodE on: 2022-06-26. E = -652.319990 Ha
C     4.09464   0.70257  -0.53075
O     2.78231   0.17286  -0.35622
C     2.68288  -1.19248  -0.33982
O     3.67749  -1.91499  -0.46943
C     1.36179  -1.67421  -0.16377
O     0.37835  -0.76334  -0.04228
C    -0.89027  -0.95242   0.12763
C    -1.38641  -2.34197   0.21269
C    -1.68374   0.26018   0.21667
C    -1.05592   1.52827   0.14730
C    -1.80806   2.69422   0.23224
C    -3.19992   2.63062   0.38670
C    -3.83186   1.38516   0.45441
C    -3.08665   0.20968   0.37098
H     4.76395   0.38954   0.28569
H     3.98724   1.79463  -0.52133
H     4.53140   0.38183  -1.48931
H     1.13109  -2.73522  -0.12871
H    -0.87487  -2.86909   1.03912
H    -2.46712  -2.39604   0.37074
H    -1.12768  -2.88904  -0.71289
H     0.02658   1.58175   0.02704
H    -1.30769   3.66375   0.17824
H    -3.78732   3.54907   0.45322
H    -4.91603   1.32676   0.57344
H    -3.60040  -0.75032   0.42396
