26
Generated by autodE on: 2022-06-26. E = -689.460868 Ha
C     2.86239  -1.72099  -0.61839
O     1.45290  -1.90222  -0.44730
C     0.61519  -0.88637  -0.24053
C     0.87365   0.45140  -0.20344
O     2.11232   0.97829  -0.43344
C     2.78675   1.51114   0.71134
C    -0.22415   1.41819   0.01321
O     0.01731   2.62380  -0.01290
C    -1.61409   0.92329   0.24861
C    -2.67942   1.94135   0.50650
C    -1.88466  -0.40483   0.20454
C    -3.26671  -0.94436   0.40839
C    -0.79455  -1.38077  -0.05117
O    -1.00914  -2.58409  -0.10056
H     3.26926  -2.73213  -0.74610
H     3.07817  -1.11733  -1.50930
H     3.31069  -1.25521   0.27076
H     3.75874   1.88049   0.35841
H     2.22146   2.34150   1.15971
H     2.94736   0.72505   1.46787
H    -3.17999   1.74517   1.46895
H    -3.46189   1.89062  -0.26911
H    -2.26391   2.95561   0.52155
H    -3.65360  -0.65943   1.40075
H    -3.28301  -2.03739   0.32519
H    -3.96345  -0.52174  -0.33405
