40
Generated by autodE on: 2022-06-13. E = -957.181885 Ha
C     5.03814  -0.17070  -1.93465
N     3.90150  -0.60230  -1.15320
C     2.80660   0.16715  -1.00517
O     2.67935   1.26785  -1.59460
C     1.74530  -0.31382  -0.10427
N     0.66319   0.56001  -0.12994
C    -0.63156   0.42153   0.08255
C    -1.43526   1.65055   0.13283
C    -0.86620   2.86229   0.57744
C    -1.61759   4.03684   0.58189
C    -2.94828   4.02191   0.15176
C    -3.52565   2.82339  -0.28322
C    -2.78077   1.64584  -0.29038
C    -1.27407  -0.90067   0.19372
C    -0.92832  -1.93306  -0.69788
C    -1.56453  -3.16955  -0.61855
C    -2.54187  -3.39909   0.35839
C    -2.89169  -2.37762   1.24545
C    -2.26785  -1.13173   1.15968
C     1.91967  -1.36722   0.84591
C     1.02011  -1.47508   2.05741
O     2.87097  -2.18625   0.75670
H     4.73494   0.11180  -2.95514
H     5.54684   0.70100  -1.48692
H     5.75935  -0.99532  -2.00154
H     3.92294  -1.44416  -0.57221
H     0.96567   1.47516  -0.49419
H     0.15921   2.87868   0.95195
H    -1.16614   4.96536   0.93800
H    -3.53762   4.94154   0.16181
H    -4.56310   2.80739  -0.62413
H    -3.23382   0.72042  -0.64720
H    -0.16233  -1.76396  -1.45613
H    -1.29768  -3.96093  -1.32241
H    -3.03086  -4.37365   0.42420
H    -3.65379  -2.54967   2.00861
H    -2.53819  -0.33677   1.85650
H     1.65610  -1.76037   2.90847
H     0.48194  -0.54945   2.29716
H     0.27815  -2.27639   1.91547
