25
Generated by autodE on: 2022-06-13. E = -763.485261 Ha
C    -0.96539   3.73118  -0.34339
O    -0.53122   2.43773   0.10542
C    -1.34423   1.41539  -0.13876
O    -2.43124   1.52069  -0.68164
C    -0.84119   0.10544   0.30948
C     0.37951  -0.46421   0.37313
C     1.72529   0.05255   0.06037
O     2.08750   1.21139   0.09706
O     2.53123  -0.96402  -0.28170
C     3.88115  -0.62822  -0.63188
C     0.08790  -1.96644   0.63819
C    -0.54002  -2.52905  -0.65688
C    -1.74714  -1.96181  -0.72388
C    -1.83067  -1.06621   0.53283
O    -1.07357  -1.84203   1.47036
H    -0.16553   4.42733  -0.06722
H    -1.90579   4.01238   0.15228
H    -1.11183   3.72930  -1.43298
H     3.89597   0.04686  -1.49981
H     4.38691  -0.14373   0.21590
H     4.37382  -1.57567  -0.87825
H     0.88835  -2.54083   1.11269
H    -0.03480  -3.19391  -1.35593
H    -2.51553  -2.02799  -1.49279
H    -2.82360  -0.79587   0.90471
