65
Generated by autodE on: 2022-06-13. E = -1720.642137 Ha. Imaginary frequency = -359.9 cm-1
C    -3.78948  -2.88876   0.95375
N    -2.58212  -2.10940   1.14179
C    -1.40950  -2.46947   0.58204
O    -1.26049  -3.55643   0.01398
C    -0.28105  -1.49471   0.81388
C     0.60429  -1.90862   1.90923
C     1.23225  -0.84820   2.78981
O     0.75877  -3.10438   2.17514
N    -0.44909  -0.14920   0.60430
C    -0.97833   0.45468  -0.49394
C    -0.72767   1.91962  -0.60127
C    -0.47956   2.72236   0.52535
C    -0.25643   4.09424   0.38359
C    -0.27137   4.68455  -0.88188
C    -0.53406   3.89562  -2.00783
C    -0.77285   2.53012  -1.86854
C    -2.32324   0.01315  -1.02658
C    -2.56740  -1.09864  -1.84678
C    -3.86881  -1.42398  -2.23901
C    -4.95293  -0.65291  -1.81633
C    -4.72536   0.45369  -0.99332
C    -3.42522   0.78605  -0.61150
C     0.41056  -0.51571  -1.98845
C     1.75725   0.21604  -2.19882
O     2.58285  -0.89870  -2.61995
C     2.32354  -1.68944  -1.43483
C     2.78610  -0.68787  -0.36500
C     3.61958  -1.06867   0.79229
O     4.36555  -0.33259   1.40788
O     3.48915  -2.37444   1.04999
C     4.23946  -2.90789   2.14862
C     2.39193   0.51698  -0.83287
C     2.57744   1.88504  -0.31158
O     2.69994   2.85361  -1.03861
O     2.61474   1.94439   1.01875
C     2.95451   3.20668   1.61068
C     0.78098  -1.73595  -1.44628
H    -3.87781  -3.21695  -0.09201
H    -4.65714  -2.26732   1.20666
H    -3.79678  -3.78530   1.59532
H    -2.66335  -1.17949   1.53862
H     1.99205  -1.31770   3.42571
H     0.44195  -0.43100   3.43722
H     1.68617  -0.00667   2.25033
H     0.28160   0.41010   1.04308
H    -0.48225   2.28459   1.52513
H    -0.07729   4.70376   1.27183
H    -0.08977   5.75603  -0.99106
H    -0.55511   4.34850  -3.00166
H    -0.98669   1.92384  -2.75013
H    -1.75710  -1.74282  -2.17583
H    -4.03041  -2.29552  -2.87711
H    -5.96837  -0.91316  -2.12342
H    -5.56193   1.06648  -0.64957
H    -3.25955   1.65470   0.02804
H    -0.38772  -0.34729  -2.70383
H     1.76549   1.03974  -2.91750
H     2.84202  -2.65116  -1.45406
H     4.05639  -2.32391   3.06104
H     5.31410  -2.89345   1.91503
H     3.88985  -3.93792   2.27877
H     2.27156   3.99338   1.26641
H     2.86031   3.06427   2.69300
H     3.98858   3.47468   1.34946
H     0.22720  -2.67094  -1.44686
