28
Generated by autodE on: 2022-07-26. E = -724.737865 Ha
C    -0.97793   3.19215   1.01948
O    -0.45720   1.86954   0.85989
C    -0.85301   1.19724  -0.24081
O    -1.66167   1.67009  -1.03062
C    -0.15856  -0.08281  -0.37701
C     1.09359  -0.34676   0.36296
C     2.14679   0.58875   0.36725
C     3.32796   0.32662   1.06026
C     3.48321  -0.87548   1.76081
C     2.44454  -1.81094   1.76683
C     1.25915  -1.54827   1.07713
N    -0.60127  -0.99417  -1.28117
C     0.36696  -1.94826  -1.87429
C    -1.86792  -1.14957  -1.71485
C    -2.98454  -0.65308  -1.03369
N    -3.94334  -0.29127  -0.46893
H    -0.67030   3.83702   0.18278
H    -2.07635   3.17352   1.07551
H    -0.55829   3.57069   1.95907
H     2.03643   1.52315  -0.18611
H     4.13660   1.06129   1.04783
H     4.41018  -1.07999   2.30162
H     2.55327  -2.74818   2.31769
H     0.44647  -2.27750   1.10012
H     0.04449  -2.15853  -2.90054
H     0.37119  -2.88243  -1.30013
H     1.36639  -1.50451  -1.88082
H    -2.02473  -1.77338  -2.59333
