28
Generated by autodE on: 2022-05-31. E = -724.740067 Ha
C    -2.64899  -2.59722  -0.79229
O    -1.87597  -1.41451  -0.57583
C    -0.59934  -1.59433  -0.16997
O    -0.12841  -2.72062  -0.01879
C     0.08072  -0.32885   0.04458
C    -0.65005   0.94392  -0.19890
C    -1.66935   1.35660   0.67599
C    -2.36404   2.54532   0.44493
C    -2.05054   3.33739  -0.66499
C    -1.04269   2.93184  -1.54503
C    -0.34919   1.74104  -1.31543
N     1.37873  -0.29412   0.44746
C     1.96204   1.04194   0.72579
C     2.18742  -1.35892   0.60824
C     3.51572  -1.23863   1.03786
N     4.63337  -1.22238   1.38803
H    -2.73048  -3.18719   0.13284
H    -2.19857  -3.22135  -1.57859
H    -3.64188  -2.25474  -1.10754
H    -1.91223   0.73797   1.54260
H    -3.15178   2.85639   1.13514
H    -2.59362   4.26819  -0.84508
H    -0.79768   3.54213  -2.41750
H     0.43268   1.42136  -2.00798
H     2.28284   1.50319  -0.21585
H     1.21050   1.67256   1.20793
H     2.82180   0.92445   1.39128
H     1.78332  -2.34295   0.38909
