41
Generated by autodE on: 2022-05-31. E = -1131.517376 Ha. Imaginary frequency = -288.7 cm-1
C     0.38334   3.67431   0.49795
O     0.74226   2.29296   0.43154
C     0.34588   1.62249  -0.66837
O    -0.26914   2.17076  -1.57221
C     0.75012   0.21834  -0.62662
C     1.97718  -0.10858   0.15604
C     3.13383   0.67363  -0.03214
C     4.30489   0.40509   0.67609
C     4.34409  -0.65096   1.59297
C     3.20488  -1.43614   1.78747
C     2.03303  -1.17146   1.07448
N     0.26958  -0.67288  -1.54315
C     0.93027  -1.99620  -1.64058
C    -0.94974  -0.65173  -2.15863
C    -1.60997   0.40805  -2.83437
N    -2.31428   1.07427  -3.48613
C    -2.32617  -0.54448  -0.30060
C    -2.31099  -1.98324   0.25828
C    -3.25626  -1.99793   1.48121
C    -2.62122  -1.29346   2.42484
C    -1.28936  -0.85778   1.76682
O    -1.03113  -1.99563   0.92920
C    -1.65350   0.14782   0.67304
F    -1.84034   1.44383   0.98025
H     0.84715   4.23963  -0.32418
H    -0.70828   3.79485   0.45020
H     0.76047   4.03778   1.46132
H     3.11446   1.49743  -0.74878
H     5.19177   1.02080   0.50880
H     5.25984  -0.86151   2.15046
H     3.22481  -2.26472   2.49937
H     1.15856  -1.79990   1.22613
H     0.57489  -2.65995  -0.84420
H     0.69226  -2.42749  -2.61765
H     2.01378  -1.87033  -1.56304
H    -1.20934  -1.60826  -2.61664
H    -3.15025  -0.14644  -0.88943
H    -2.39826  -2.80414  -0.46068
H    -4.24813  -2.44863   1.50057
H    -2.94741  -1.01529   3.42643
H    -0.44786  -0.61119   2.42222
