37
Generated by autodE on: 2022-05-31. E = -1600.937015 Ha
C     4.31937  -0.72195  -0.30381
O     2.98539  -0.46728   0.18326
C     2.21949   0.29840  -0.56393
O     2.53244   0.81800  -1.61269
C     0.80266   0.46541  -0.00799
C     0.49897   1.98844  -0.03736
O    -0.36877   2.51888  -0.68655
O     1.32742   2.60703   0.78770
C     1.14233   4.02645   0.95040
O     0.72034  -0.00294   1.32085
C    -0.63519  -0.29698   1.64132
C    -0.65146  -1.21718   2.85522
C    -1.31664   0.97395   2.01314
N    -1.76145   1.98204   2.37256
C    -1.23208  -0.89764   0.31455
Cl   -2.94468  -0.43550   0.08276
C    -1.05607  -2.45335   0.21895
C    -1.61120  -2.91131  -1.11833
C    -0.70292  -2.53638  -2.02545
C     0.38495  -1.83567  -1.23057
O     0.35681  -2.51953   0.01563
C    -0.22009  -0.40827  -0.80577
C    -0.80515   0.22756  -1.97645
N    -1.25141   0.60261  -2.97898
H     4.27044  -1.24150  -1.27074
H     4.86535   0.22472  -0.41490
H     4.79466  -1.35667   0.45147
H     1.24557   4.53475  -0.01808
H     1.92573   4.35216   1.64294
H     0.14681   4.22214   1.37316
H    -0.24445  -0.67824   3.72131
H    -1.68121  -1.52779   3.07875
H    -0.02542  -2.09560   2.65824
H    -1.37527  -2.99844   1.11036
H    -2.58201  -3.38116  -1.26574
H    -0.73547  -2.61244  -3.11091
H     1.38830  -1.79523  -1.66349
