23
Generated by autodE on: 2022-05-31. E = -741.400542 Ha
C    -3.59265  -0.11311  -0.60368
O    -2.27862   0.46188  -0.58937
C    -1.30380  -0.30264  -0.08578
O    -1.49088  -1.44865   0.31182
C    -0.01372   0.35579   0.00050
O     1.04927  -0.35864   0.42181
C     1.38626  -1.59699   0.39497
C     2.63255  -1.97254   1.10549
C     0.69282  -2.57347  -0.37514
N     0.30758  -3.43131  -1.06305
C     0.22424   1.79483  -0.00918
O    -0.60791   2.64174  -0.29475
O     1.49596   2.10325   0.31592
C     1.82159   3.49721   0.33473
H    -3.60587  -1.03215  -1.20746
H    -4.24504   0.64482  -1.05245
H    -3.92701  -0.34367   0.41836
H     3.27196  -2.59699   0.46228
H     3.16473  -1.06369   1.41555
H     2.38271  -2.56893   2.00114
H     1.20891   4.03199   1.07563
H     2.88111   3.55538   0.61087
H     1.66478   3.94763  -0.65656
