14
Generated by autodE on: 2022-05-31. E = -859.428392 Ha
N     3.07785  -0.06442  -1.13619
C     1.97574  -0.19716  -0.77950
C     0.64466  -0.37589  -0.36381
C    -0.03513   0.24153   0.62359
Cl    0.47739   1.45506   1.70318
C    -1.48506  -0.29016   0.53263
C    -2.08154   0.29821  -0.76460
C    -1.42915  -0.32298  -1.75081
C    -0.44119  -1.27292  -1.04214
O    -1.20410  -1.63417   0.11930
H    -2.07731  -0.23725   1.45111
H    -2.82743   1.09049  -0.80368
H    -1.49574  -0.18474  -2.82893
H    -0.06821  -2.14176  -1.59225
