24
Generated by autodE on: 2022-06-13. E = -609.449264 Ha
C    -4.82419  -0.07564   0.93632
N    -3.69024   0.02176   0.04418
C    -2.40239  -0.03489   0.45846
O    -2.07317  -0.16819   1.65582
C    -1.39352   0.07173  -0.58964
N    -0.13320   0.01890  -0.17992
C     1.02269   0.08353  -0.84975
C     1.01182   0.24096  -2.32821
C     2.19262  -0.01360  -0.00398
O     2.15388  -0.14720   1.22092
O     3.35375   0.05637  -0.68693
C     4.55385  -0.02684   0.08584
H    -4.45711  -0.14324   1.96708
H    -5.47487   0.80934   0.85040
H    -5.43122  -0.97003   0.71960
H    -3.86545   0.12329  -0.95040
H    -1.62672   0.18764  -1.64627
H    -0.03787  -0.09194   0.84244
H     0.47715  -0.59703  -2.81257
H     0.48391   1.16596  -2.62532
H     2.03143   0.27946  -2.72674
H     4.60633  -0.98343   0.62704
H     4.61116   0.79944   0.81033
H     5.38171   0.04460  -0.62984
