24
Generated by autodE on: 2022-07-27. E = -609.428465 Ha
C    -0.58714  -3.32506   2.12472
N    -1.10699  -2.65087   0.95511
C    -0.92751  -1.31705   0.76197
O    -0.21532  -0.63998   1.52499
C    -1.69300  -0.75525  -0.34377
N    -1.53706   0.48967  -0.80483
C    -0.50763   1.35820  -0.78646
C    -0.80489   2.79798  -1.07673
C     0.85344   0.87903  -0.67378
O     1.23926  -0.28160  -0.77230
O     1.72648   1.90976  -0.53112
C     3.11343   1.56885  -0.53318
H     0.47245  -3.07106   2.27482
H    -1.13158  -3.04976   3.04564
H    -0.67256  -4.40987   1.98234
H    -1.76592  -3.14213   0.36015
H    -2.59614  -1.26259  -0.68364
H    -2.37383   0.86531  -1.26208
H    -0.10394   3.21867  -1.81302
H    -0.73258   3.42103  -0.16761
H    -1.82981   2.90861  -1.46491
H     3.40479   1.10575  -1.48829
H     3.34774   0.87382   0.28717
H     3.65903   2.51012  -0.39332
