26
Generated by autodE on: 2022-06-13. E = -1905.785874 Ha
F    -1.44376  -2.76495  -1.74859
C    -0.39311  -2.16632  -1.17621
F     0.39628  -1.70653  -2.15624
F     0.29862  -3.10109  -0.51161
C    -0.83169  -1.00007  -0.25445
C    -1.61768  -1.54985   0.96294
F    -2.67089  -2.28054   0.57638
F    -2.07761  -0.54831   1.72390
F    -0.84992  -2.32087   1.74389
C     0.33597  -0.25875   0.20777
C     1.06204   0.67904   0.44329
C     1.49003   2.06063   0.41091
Cl    2.31338   2.55195   1.95198
Cl    2.68302   2.26270  -0.95922
C     0.25352   2.94453   0.16619
C    -0.68298   2.45960  -0.95894
C    -1.80622   1.45664  -0.57144
C    -1.70827   0.00511  -1.08408
H     0.62221   3.95976  -0.04056
H    -0.29827   2.98252   1.11822
H    -1.17186   3.36536  -1.34657
H    -0.08482   2.06807  -1.79775
H    -1.96127   1.46900   0.51661
H    -2.74335   1.83900  -1.00273
H    -1.29753   0.01889  -2.10330
H    -2.71529  -0.43057  -1.15386
