25
Generated by autodE on: 2022-06-26. E = -668.323186 Ha
C    -3.64208   1.82309  -0.01062
O    -2.49028   0.97082   0.05263
C    -2.71818  -0.31549   0.34908
O    -3.82719  -0.78028   0.56252
C    -1.49733  -1.12866   0.39439
C    -1.47828  -2.56779   0.69118
O    -0.40026  -0.48332   0.14667
N     0.77697  -1.10969   0.15714
C     1.78298  -0.20550  -0.13918
C     1.59973   1.17162  -0.41016
C     2.70129   1.97424  -0.69611
C     3.99637   1.43880  -0.72050
C     4.18153   0.07656  -0.45267
C     3.09138  -0.74022  -0.16475
H    -4.33864   1.47273  -0.78626
H    -3.26460   2.82063  -0.26258
H    -4.15869   1.84585   0.96004
H    -0.84049  -2.76359   1.57247
H    -2.49419  -2.93619   0.86888
H    -1.01227  -3.11846  -0.14634
H     0.59646   1.59732  -0.39391
H     2.54794   3.03625  -0.90393
H     4.85246   2.07805  -0.94655
H     5.18618  -0.35284  -0.46869
H     3.22569  -1.80342   0.04513
