26
Generated by autodE on: 2022-06-26. E = -689.460862 Ha
C     2.37403   2.21580   0.14336
O     1.89924   1.20069  -0.74739
C     0.77758   0.53227  -0.34714
C     0.79494  -0.76346   0.07558
O     1.83177  -1.58670   0.22759
C     3.18614  -1.17154   0.02179
C    -0.49634  -1.45256   0.42940
O    -0.46000  -2.61656   0.80406
C    -1.77607  -0.70534   0.32942
C    -3.03321  -1.42723   0.70468
C    -1.78071   0.58540  -0.08661
C    -3.04553   1.37637  -0.19953
C    -0.50402   1.25891  -0.47309
O    -0.50735   2.40998  -0.90627
H     3.27566   2.64030  -0.31773
H     1.62601   3.01043   0.28153
H     2.63456   1.78197   1.12316
H     3.79607  -2.05461   0.25072
H     3.45457  -0.35325   0.70501
H     3.35190  -0.86313  -1.01837
H    -3.54262  -0.91548   1.53792
H    -3.74291  -1.43806  -0.13884
H    -2.82334  -2.46126   1.00250
H    -2.84584   2.39914  -0.53951
H    -3.74166   0.89713  -0.90809
H    -3.56658   1.41741   0.77115
