51
Generated by autodE on: 2022-06-26. E = -1357.756937 Ha. Imaginary frequency = -256.8 cm-1
C    -0.82861   1.14016  -2.62383
O    -0.40584   1.08514  -1.25216
C    -1.26344   1.45833  -0.32646
O    -2.42834   1.74708  -0.53039
C    -0.69766   1.51717   1.06939
C    -1.59972   2.07443   2.10427
O     0.57173   1.56898   1.38045
N     1.59577   0.80512   0.79491
C     2.12982   1.31629  -0.35854
C     1.85704   2.59521  -0.90824
C     2.51369   3.01723  -2.05960
C     3.44879   2.19419  -2.70306
C     3.74476   0.94127  -2.14952
C     3.11612   0.50853  -0.98596
C     0.45277  -1.31120   1.21186
O     1.46040  -1.68891   1.98568
C     1.74016  -1.09760   3.26380
C     0.60040  -1.79669  -0.19454
O     1.69809  -2.17575  -0.59171
C    -0.59430  -1.87414  -1.07293
C    -0.29205  -2.32103  -2.46938
C    -1.82809  -1.56506  -0.59053
C    -3.10735  -1.63897  -1.36370
C    -1.99142  -1.08533   0.81282
O    -3.11742  -0.87986   1.27446
C    -0.80207  -0.83987   1.64523
O    -1.00849  -0.60904   2.97751
C    -1.52925  -1.71436   3.72907
H    -1.15744   2.15917  -2.86985
H    -1.64826   0.43188  -2.80003
H     0.05217   0.86711  -3.21395
H    -2.52571   1.48187   2.14369
H    -1.88261   3.10480   1.82917
H    -1.10396   2.07196   3.08054
H     1.13462   3.25109  -0.42195
H     2.29002   4.00771  -2.46457
H     3.95276   2.53288  -3.61063
H     4.48781   0.29567  -2.62490
H     3.36131  -0.45438  -0.53967
H     2.81995  -1.22751   3.41400
H     1.19690  -1.62456   4.06000
H     1.48937  -0.03253   3.26986
H    -1.16616  -2.28125  -3.12701
H     0.50253  -1.69000  -2.89742
H     0.09869  -3.35178  -2.46631
H    -3.81221  -2.32243  -0.86347
H    -2.96247  -1.97971  -2.39393
H    -3.59207  -0.65026  -1.38085
H    -2.57669  -1.91414   3.46169
H    -0.92610  -2.62079   3.56007
H    -1.46793  -1.42629   4.78665
