45
Generated by autodE on: 2022-06-22. E = -1204.227622 Ha
C     0.46548   1.78368  -2.73459
N     1.08733   1.40588  -1.48258
C     0.65102   1.80789  -0.28403
O    -0.22982   2.65679  -0.09340
C     1.28896   1.11404   0.92146
O     2.42033   0.33746   0.56676
C     2.12474  -1.05425   0.54063
C     2.64648  -1.65164  -0.77064
C     2.95881  -3.11635  -0.78058
O     2.90627  -0.92117  -1.71511
C     0.59629  -1.18805   0.82732
C     0.22980  -2.48017   1.57470
C    -0.19558  -1.21917  -0.48231
O     0.18235  -1.91738  -1.41277
C    -1.46685  -0.47562  -0.59075
O    -2.07619  -0.66448  -1.76906
C    -2.94158   0.34217  -2.31544
C    -1.93822   0.28589   0.44782
O    -3.20088   0.74982   0.40675
C    -3.48349   2.12071   0.73794
C    -1.12620   0.52905   1.65603
O    -1.63470   1.05231   2.63793
C     0.34192   0.11070   1.65545
C     0.81812  -0.01231   3.10801
H    -0.27488   2.57109  -2.55136
H     1.21757   2.15872  -3.44473
H    -0.03693   0.91260  -3.18478
H     1.83464   0.70345  -1.50773
H     1.59939   1.90980   1.61314
H     2.67119  -1.55311   1.35812
H     3.96353  -3.24522  -0.34092
H     2.25586  -3.69508  -0.16699
H     2.97596  -3.49069  -1.81223
H    -0.82453  -2.45171   1.88605
H     0.36886  -3.35018   0.91905
H     0.86080  -2.61030   2.46302
H    -2.95467   0.16160  -3.39825
H    -3.95757   0.25125  -1.91049
H    -2.54721   1.34802  -2.11305
H    -4.31724   2.42474   0.08999
H    -2.61160   2.75618   0.53751
H    -3.78030   2.21002   1.79116
H     0.72731   0.96263   3.60353
H     0.21059  -0.73454   3.66834
H     1.86977  -0.32511   3.15299
