19
Generated by autodE on: 2022-07-27. E = -514.650331 Ha
C    -1.19272   2.36141  -1.42153
N    -0.62624   1.34540  -0.56120
C    -0.42500   1.58379   0.73457
O    -0.69907   2.65927   1.29922
C     0.15953   0.53726   1.61374
O     0.55503  -0.65748   1.40775
C     0.78624  -1.73171   0.66279
C     0.55133  -1.91780  -0.72976
C     0.93289  -3.28040  -1.26021
O     0.07303  -1.07672  -1.52030
H    -0.56210   3.26551  -1.44764
H    -1.27461   1.95880  -2.43883
H    -2.19531   2.66643  -1.07903
H    -0.36393   0.41959  -0.95231
H     0.27395   0.85381   2.65533
H     1.21293  -2.53219   1.26540
H     1.67886  -3.15246  -2.06128
H     1.33762  -3.95182  -0.49187
H     0.04306  -3.74371  -1.71629
