26
Generated by autodE on: 2022-06-22. E = -689.460866 Ha
C     3.26952  -0.84954  -0.35024
O     1.97407  -1.41798  -0.13213
C     0.86192  -0.68462  -0.09194
C     0.70381   0.65453  -0.29042
O     1.73376   1.48508  -0.62848
C     2.17957   2.37857   0.39709
C    -0.64180   1.26470  -0.22685
O    -0.77321   2.46549  -0.45815
C    -1.82704   0.41752   0.10435
C    -3.15918   1.09243   0.19361
C    -1.68269  -0.91697   0.29731
C    -2.84453  -1.80730   0.61350
C    -0.33949  -1.54410   0.20024
O    -0.17924  -2.74600   0.36294
H     3.96648  -1.69608  -0.30670
H     3.32951  -0.36825  -1.33482
H     3.52068  -0.12689   0.43923
H     3.00443   2.96216  -0.03278
H     2.54738   1.81444   1.27024
H     1.37591   3.06014   0.71296
H    -3.61042   0.93257   1.18679
H    -3.86175   0.66595  -0.54165
H    -3.07053   2.16998   0.01299
H    -3.60787  -1.74930  -0.17972
H    -2.52757  -2.85110   0.72212
H    -3.33635  -1.48836   1.54737
