45
Generated by autodE on: 2022-06-22. E = -1204.123688 Ha. Imaginary frequency = -259.8 cm-1
C    -0.24421   3.02567  -1.94136
N     0.58853   2.19184  -1.10102
C     0.62435   2.29009   0.22793
O     0.01334   3.13418   0.90725
C     1.50885   1.37100   1.00914
O     2.33194   0.44295   0.62703
C     2.41654  -0.69836  -0.04542
C     2.07102  -0.92948  -1.43197
C     2.36333  -2.31317  -1.94475
O     1.56988  -0.08451  -2.18952
C     0.44353  -1.50448   1.44176
C     1.31731  -2.44301   2.22002
C    -0.19208  -2.03011   0.20910
O     0.00328  -3.17901  -0.18406
C    -1.09841  -1.13566  -0.55790
O    -1.36640  -1.60017  -1.79612
C    -1.64256  -0.68224  -2.86028
C    -1.66495  -0.04832   0.04587
O    -2.67745   0.59647  -0.56726
C    -3.08648   1.92783  -0.22715
C    -1.26228   0.29126   1.43619
O    -1.95165   1.04179   2.12121
C    -0.02677  -0.32264   1.99824
C     0.31091   0.06273   3.41316
H    -0.56311   3.91555  -1.38552
H     0.32233   3.34231  -2.82977
H    -1.13827   2.48037  -2.28365
H     1.04457   1.37218  -1.53756
H     1.77768   1.78786   1.98229
H     3.13273  -1.37463   0.42097
H     2.82902  -2.96388  -1.19455
H     3.01981  -2.23246  -2.82575
H     1.41358  -2.76228  -2.27385
H     0.73637  -2.90241   3.03940
H     1.70049  -3.24756   1.58131
H     2.16271  -1.91559   2.68230
H    -2.68229  -0.33143  -2.83051
H    -1.46706  -1.24202  -3.78855
H    -0.95739   0.17605  -2.81942
H    -3.52189   2.34585  -1.14502
H    -2.24452   2.54819   0.09854
H    -3.85018   1.90337   0.56245
H    -0.23352  -0.58276   4.12434
H     0.02429   1.10216   3.61425
H     1.38344  -0.05690   3.61505
