47
Generated by autodE on: 2022-10-26. E = -1226.234312 Ha
C    -2.94432   2.82160   0.30251
O    -3.21050   1.52372   0.82420
C    -2.62322   0.40592   0.18728
C    -3.42420   0.05968  -1.08800
F    -2.94570  -1.04849  -1.68417
F    -4.71634  -0.15669  -0.80797
F    -3.37003   1.04797  -1.99895
C    -1.20016   0.58483  -0.13245
C    -0.01196   0.40582   0.01920
C     1.26296  -0.05834   0.56674
C     2.32878   1.04429   0.46730
C     3.15998   1.39091   1.53931
C     4.14388   2.37529   1.38511
C     4.30760   3.02573   0.16059
C     3.48003   2.68469  -0.91568
C     2.50133   1.70254  -0.76074
C     1.76217  -1.31625  -0.17389
C     0.97787  -1.99350  -1.11601
C     1.45397  -3.15377  -1.73800
C     2.71884  -3.65408  -1.42366
C     3.50746  -2.98432  -0.48091
C     3.03326  -1.82564   0.13575
C     0.90289  -0.43249   2.04633
C    -0.32715  -1.34340   2.23548
C    -1.72773  -0.68277   2.37890
C    -2.70462  -0.77164   1.19074
H    -1.86852   2.95930   0.10155
H    -3.25499   3.53625   1.07700
H    -3.51131   3.02372  -0.61968
H     3.05416   0.89512   2.50396
H     4.78394   2.63278   2.23249
H     5.07471   3.79479   0.04329
H     3.59739   3.18667  -1.87913
H     1.86048   1.43672  -1.60530
H    -0.01483  -1.61778  -1.36725
H     0.82736  -3.66620  -2.47209
H     3.09082  -4.55905  -1.90976
H     4.49993  -3.36428  -0.22664
H     3.66138  -1.30817   0.86360
H     1.78436  -0.92774   2.47886
H     0.75292   0.50262   2.60791
H    -0.35386  -2.10614   1.43919
H    -0.14290  -1.90285   3.16537
H    -1.62496   0.37068   2.68676
H    -2.23459  -1.18302   3.21796
H    -2.54254  -1.71130   0.64279
H    -3.74187  -0.78010   1.55860
