89
Generated by autodE on: 2022-10-26. E = -2242.537582 Ha. Imaginary frequency = -297.0 cm-1
C     2.09208  10.71769  -7.68192
O     1.49516  10.12167  -6.52973
C     2.24149  10.05665  -5.41634
O     3.37612  10.51173  -5.37518
C     1.53539   9.40127  -4.28256
C     2.41245   9.30010  -3.06108
C     3.66245   8.46614  -3.06490
O     2.12040   9.95121  -2.06221
C     0.82811   7.50260  -5.43591
C    -0.42157   7.45654  -5.34392
C    -1.70792   6.93929  -5.92486
C    -2.62439   6.41151  -4.79746
C    -3.92473   6.86821  -4.55611
C    -4.71164   6.30780  -3.54479
C    -4.20903   5.28846  -2.73591
C    -2.90598   4.82965  -2.95534
C    -2.13334   5.37819  -3.97944
C    -2.34607   8.00898  -6.83035
C    -1.64064   9.16103  -7.20129
C    -2.17821  10.08486  -8.10268
C    -3.43694   9.86787  -8.66669
C    -4.13636   8.70199  -8.33709
C    -3.59079   7.77938  -7.44144
C    -1.43915   5.70193  -6.86403
C    -0.68531   5.94177  -8.17949
C     0.82466   5.68699  -8.21257
C     1.76690   6.75248  -7.64268
C     2.00659   6.88065  -6.11479
O     3.13338   7.70689  -5.89372
C     4.43992   7.34881  -6.30741
C     2.28125   5.48436  -5.47632
F     1.17511   4.73106  -5.35491
F     2.80695   5.59004  -4.24273
F     3.15600   4.77321  -6.21247
C    -0.68706   8.96578  -3.50448
C    -0.16171   8.10823  -2.36188
C     0.34047   6.80799  -2.42953
C     0.83123   6.16057  -1.28874
C     0.81680   6.79958  -0.05058
C     0.30833   8.10108   0.03772
C    -0.16700   8.74366  -1.10163
C    -2.12732   9.33708  -3.39140
C    -2.90541   8.87740  -2.30489
C    -4.24901   9.22017  -2.17085
C    -4.88044  10.00722  -3.13559
C    -4.14658  10.43170  -4.24609
C    -2.79821  10.10397  -4.36982
N     0.21941   9.83589  -4.05312
C    -0.12309  11.20824  -4.46499
H     1.32557  10.68868  -8.46576
H     2.38755  11.75741  -7.47807
H     2.97529  10.14188  -7.99541
H     4.32789   8.76086  -3.88439
H     3.40913   7.41084  -3.21372
H     4.17269   8.59893  -2.10159
H    -4.33418   7.69333  -5.13303
H    -5.71901   6.69556  -3.37821
H    -4.82137   4.85840  -1.93971
H    -2.48760   4.03702  -2.33014
H    -1.12789   4.99229  -4.14272
H    -0.65425   9.34172  -6.78171
H    -1.60334  10.97796  -8.36081
H    -3.86376  10.58899  -9.36780
H    -5.11229   8.50257  -8.78655
H    -4.14574   6.86550  -7.22788
H    -0.93622   4.91960  -6.28386
H    -2.43749   5.30726  -7.10491
H    -0.88913   6.95355  -8.56324
H    -1.12771   5.25611  -8.92020
H     1.10210   5.60613  -9.27637
H     1.04818   4.69728  -7.78511
H     2.75495   6.56908  -8.08630
H     1.45196   7.75117  -7.97857
H     4.48427   7.00247  -7.35153
H     4.88568   6.58159  -5.65339
H     5.03579   8.26882  -6.22697
H     0.36640   6.29013  -3.37694
H     1.22676   5.14672  -1.38478
H     1.19939   6.29413   0.83932
H     0.28926   8.62191   0.99797
H    -0.53449   9.76729  -1.02151
H    -2.46585   8.22715  -1.55360
H    -4.81029   8.84705  -1.31169
H    -5.93577  10.27028  -3.03385
H    -4.62444  11.02023  -5.03243
H    -2.28250  10.42935  -5.26295
H     0.77367  11.82625  -4.33640
H    -0.45982  11.28685  -5.50456
H    -0.89770  11.60196  -3.79815
