46
Generated by autodE on: 2022-06-06. E = -3720.779290 Ha
C     3.35977   2.36226   1.58596
O     2.66395   1.99802   0.37974
C     1.45549   1.47100   0.52260
O     0.87616   1.33781   1.57494
C     0.91115   0.96748  -0.84932
C     1.09997   2.02999  -1.85324
N     1.27435   2.84841  -2.65535
N     1.58796  -0.24182  -1.26732
C     2.99306  -0.24623  -1.62184
C     1.01157  -1.40355  -0.62713
C     1.80906  -1.88294   0.60585
C     1.81067  -3.36157   0.86959
O     2.50769  -1.10805   1.23358
C    -0.48662  -1.02475  -0.37262
Br   -1.00704  -1.58994   1.46073
C    -1.40637  -1.68471  -1.42506
C    -2.86902  -1.22080  -1.24902
C    -2.85844   0.22493  -1.82311
C    -1.36019   0.46796  -2.09960
C    -0.98255  -0.90354  -2.68434
C    -0.58351   0.52243  -0.71994
C    -1.29914   1.55823   0.13714
O    -1.09685   2.74525  -0.04923
O    -2.20091   1.09008   0.97467
C    -2.94498   2.04858   1.73966
H     3.51244   1.47053   2.20951
H     2.78371   3.11399   2.14308
H     4.32173   2.77594   1.26437
H     3.19956   0.57039  -2.32924
H     3.21540  -1.19597  -2.13240
H     3.67736  -0.14757  -0.76259
H     1.03909  -2.24747  -1.33706
H     2.06409  -3.56363   1.91864
H     0.85907  -3.83711   0.59826
H     2.59614  -3.79974   0.22731
H    -1.27239  -2.77325  -1.45201
H    -3.53823  -1.87885  -1.82076
H    -3.18436  -1.25439  -0.19827
H    -3.39055   0.27150  -2.78385
H    -3.32695   0.96237  -1.16046
H    -1.15907   1.35006  -2.71763
H     0.07024  -1.00966  -2.96045
H    -1.60822  -1.15584  -3.55249
H    -3.62141   1.46469   2.37374
H    -2.26296   2.64915   2.35796
H    -3.51796   2.70932   1.07352
