23
Generated by autodE on: 2022-06-06. E = -646.304190 Ha
C    -3.62082   0.82379   1.51881
O    -2.79034   0.12842   0.58165
C    -1.46690   0.35757   0.66249
O    -0.98367   1.11518   1.49352
C    -0.74333  -0.40576  -0.35136
C    -1.50824  -1.22932  -1.20856
N    -2.17711  -1.89645  -1.89570
N     0.63005  -0.35215  -0.50486
C     1.22198  -1.18722  -1.58013
C     1.42728   0.39524   0.24517
C     2.88681   0.49967   0.12799
C     3.49954   1.44081   1.13451
O     3.57445  -0.10139  -0.69542
H    -3.35729   0.54819   2.55044
H    -4.64833   0.51349   1.29616
H    -3.51854   1.91183   1.39460
H     1.73479  -0.53465  -2.29372
H     0.43320  -1.74846  -2.08292
H     1.94947  -1.87301  -1.13560
H     0.93779   0.98332   1.01547
H     4.58790   1.47504   0.99860
H     3.25897   1.11091   2.15854
H     3.07472   2.45116   1.01534
