39
Generated by autodE on: 2022-06-17. E = -843.849391 Ha. Imaginary frequency = -411.5 cm-1
C    -0.49132   1.50971   3.62030
O    -0.56957   0.75829   2.39465
C    -1.55557   1.08125   1.55964
O    -2.39103   1.94592   1.74504
C    -1.43308   0.36074   0.30053
N    -1.85760  -0.63596  -0.24174
C    -1.77308  -1.33413  -1.37385
C    -0.93045  -2.58127  -1.41705
C    -2.87793  -1.21695  -2.27079
N    -3.74389  -1.11738  -3.04529
C    -0.31675   0.31781  -2.39098
C    -0.05338   1.24261  -1.39620
C    -0.73210   2.59751  -1.43898
C     1.11352   1.12832  -0.50137
C     1.91174   0.04670  -0.33560
C     3.00987   0.00394   0.60744
C     3.81405  -1.05497   0.87824
C     3.69144  -2.40092   0.22062
C     4.91759  -0.94564   1.89263
H    -0.37319   2.58040   3.40139
H     0.38985   1.12717   4.14692
H    -1.39655   1.35181   4.22327
H    -0.00752  -2.42842  -0.84086
H    -0.67149  -2.81400  -2.45937
H    -1.47432  -3.44419  -0.99731
H     0.37198  -0.50156  -2.59794
H    -1.03966   0.55727  -3.17302
H    -0.11584   3.31129  -2.01455
H    -1.71594   2.53520  -1.92660
H    -0.87186   3.02782  -0.43606
H     1.31156   2.01087   0.11853
H     1.71020  -0.85382  -0.92278
H     3.19288   0.93255   1.16216
H     3.54465  -3.18685   0.98264
H     2.86472  -2.46686  -0.49881
H     4.62731  -2.65863  -0.30669
H     5.89713  -1.17170   1.43356
H     4.78309  -1.68582   2.70212
H     4.96943   0.05636   2.34369
