37
Generated by autodE on: 2022-05-29. E = -896.865590 Ha
C    -1.76558   2.65876  -2.15724
C    -2.27115   1.31838  -1.69538
O    -3.18400   0.71663  -2.25591
N    -1.68177   0.79504  -0.56607
N    -0.47178   1.31965  -0.10565
N     0.45792   0.24849  -0.34567
C     1.77143   0.51498   0.03598
C     2.73015  -0.51077   0.19307
C     4.04895  -0.20379   0.53054
C     4.45802   1.11860   0.72690
C     3.51200   2.13769   0.58103
C     2.18853   1.84976   0.24738
C    -0.23087  -1.05632  -0.19150
C     0.15840  -2.04821  -1.27898
C    -0.17404  -1.58474   1.29117
C    -1.00021  -2.86056   1.36082
C    -2.27710  -2.46250   1.29935
C    -2.21956  -0.94600   1.18581
O    -1.03523  -0.63395   1.94488
C    -1.74191  -0.62782  -0.26038
H    -2.39707   3.00227  -2.98583
H    -1.77992   3.39402  -1.34065
H    -0.72295   2.56881  -2.49813
H    -0.56290   1.40837   0.91419
H     2.45783  -1.55360   0.05160
H     4.76550  -1.02148   0.64317
H     5.49164   1.34940   0.99278
H     3.80237   3.18065   0.73264
H     1.46927   2.65955   0.13837
H    -0.50463  -2.92321  -1.24642
H     1.19188  -2.40536  -1.17805
H     0.05329  -1.57248  -2.26503
H     0.82059  -1.59334   1.74632
H    -0.59768  -3.87316   1.36695
H    -3.18320  -3.06522   1.23900
H    -3.08200  -0.36296   1.52605
H    -2.32727  -1.14062  -1.02785
