21
Generated by autodE on: 2022-05-29. E = -549.949896 Ha
C     3.73230  -1.14048  -0.65747
C     2.99097   0.08909  -0.22350
O     3.55223   1.15314   0.05096
N     1.61232  -0.08637  -0.16183
N     1.02901   1.02466   0.22039
N    -0.19294   1.29197   0.40267
C    -1.21832   0.36477   0.21094
C    -1.11144  -0.98451  -0.20035
C    -2.26611  -1.75644  -0.33387
C    -3.52816  -1.21628  -0.06774
C    -3.64169   0.11911   0.33957
C    -2.50015   0.89990   0.47719
H     4.81149  -0.94529  -0.68092
H     3.38541  -1.45165  -1.65570
H     3.51524  -1.97077   0.03303
H     1.68026   1.81452   0.40375
H    -0.13527  -1.40922  -0.40834
H    -2.17563  -2.79777  -0.65150
H    -4.42245  -1.83395  -0.17697
H    -4.62345   0.54908   0.54933
H    -2.56699   1.94223   0.79349
