16
Generated by autodE on: 2022-05-29. E = -346.852369 Ha
C     2.51601   0.01509   0.44096
C     1.07773  -0.26142   0.19049
C     0.21334  -1.11709   0.75111
C    -1.15355  -0.78866   0.11019
C    -1.58097   0.60779   0.62447
C    -0.72209   1.45975   0.05605
C     0.20815   0.56670  -0.79644
O    -0.72784  -0.44166  -1.22605
H     2.64973   1.05395   0.79340
H     2.93760  -0.66370   1.19679
H     3.10827  -0.07737  -0.48590
H     0.37935  -1.84005   1.54950
H    -1.91490  -1.57699   0.10775
H    -2.37394   0.79625   1.34796
H    -0.61866   2.53688   0.18454
H     0.72933   1.03624  -1.63892
