37
Generated by autodE on: 2022-05-29. E = -896.784174 Ha. Imaginary frequency = -294.2 cm-1
C    -1.45613   2.26667  -2.59901
C    -2.22989   1.33325  -1.69076
O    -3.24283   0.76652  -2.10015
N    -1.84148   1.20230  -0.37111
N    -0.58712   1.44403  -0.05469
N     0.34290   0.77417  -0.68109
C     1.63781   0.81970  -0.14524
C     2.65231   0.29204  -0.96847
C     3.97132   0.23263  -0.52182
C     4.30456   0.70962   0.75030
C     3.30460   1.24635   1.56981
C     1.98085   1.30296   1.13515
C    -0.56517  -1.33325  -0.28317
C    -0.05402  -2.00553  -1.50792
C     0.02746  -1.58600   1.12118
C    -0.66401  -2.84946   1.67334
C    -1.92473  -2.47237   1.91897
C    -1.98534  -0.98583   1.51241
O    -0.65298  -0.56249   1.87407
C    -1.87091  -0.93591  -0.02038
H    -2.18089   2.79524  -3.23392
H    -0.80711   1.66697  -3.25519
H    -0.83288   2.98648  -2.05483
H    -0.46203   1.68810   0.93355
H     2.38279  -0.05933  -1.96538
H     4.74452  -0.18055  -1.17357
H     5.33794   0.66807   1.10129
H     3.55701   1.62315   2.56373
H     1.22922   1.71658   1.80853
H    -0.22160  -3.09659  -1.43697
H     1.02866  -1.85442  -1.63579
H    -0.57122  -1.64115  -2.40770
H     1.11575  -1.51537   1.22547
H    -0.20154  -3.83123   1.77213
H    -2.77047  -3.06458   2.26786
H    -2.75205  -0.35983   1.98065
H    -2.71893  -1.06377  -0.68899
