50
Generated by autodE on: 2022-06-26. E = -1203.845369 Ha
C    -3.46416   3.03547   0.98881
O    -2.56778   2.33907   0.10987
C    -1.40755   1.93612   0.62621
O    -1.06395   2.17838   1.76402
C    -0.59771   1.11929  -0.40947
C    -0.21798   2.11141  -1.53273
C    -0.14916   1.65814  -2.96074
O     0.04626   3.25638  -1.20572
C     0.69017   0.56767   0.24701
C     1.80153   0.21613  -0.75437
C     2.77062  -0.77744  -0.16494
C     4.12730  -0.95901  -0.69139
N     4.46835  -0.20299  -1.76842
O     4.95385  -1.75914  -0.20285
C     2.36752  -1.60116   0.84803
N     1.14562  -1.58368   1.42771
C     0.79117  -2.48863   2.50452
C     0.13143  -0.65385   0.99263
C    -0.98103  -1.23556   0.03961
C    -0.50792  -2.44486  -0.76527
C    -2.23834  -1.52383   0.90254
C    -2.84810  -2.89400   0.91013
O    -2.73378  -0.60540   1.53811
N    -1.26382  -0.09289  -0.85001
C    -2.54781  -0.05276  -1.52180
H    -2.99489   3.95515   1.36594
H    -3.74107   2.38877   1.83368
H    -4.34878   3.27730   0.38889
H     0.72956   2.11435  -3.43865
H    -0.13512   0.56868  -3.06606
H    -1.04452   2.04530  -3.47658
H     1.07616   1.29320   0.97243
H     2.31786   1.14825  -1.03293
H     1.36703  -0.18932  -1.68199
H     3.81540   0.41523  -2.23206
H     5.39011  -0.32615  -2.17187
H     3.06578  -2.33624   1.25307
H     1.65030  -3.12528   2.75128
H    -0.05321  -3.13760   2.21852
H     0.49454  -1.92596   3.40577
H    -0.37647  -0.28121   1.89063
H     0.40551  -2.19607  -1.31999
H    -1.27436  -2.75159  -1.49127
H    -0.28991  -3.30400  -0.11748
H    -2.11512  -3.64612   1.23839
H    -3.15040  -3.17073  -0.11252
H    -3.72276  -2.90674   1.57293
H    -2.55598   0.73979  -2.28094
H    -3.40617   0.12387  -0.84930
H    -2.71230  -1.00933  -2.04198
