20
Generated by autodE on: 2022-06-26. E = -457.715318 Ha
C    -3.01166  -1.01660  -0.04672
N    -1.81955  -0.19075   0.05404
C    -1.93613   1.13885   0.47825
C    -0.87337   1.94030   0.65224
C     0.54694   1.48965   0.41499
C     0.57478   0.03745  -0.03340
C     1.84312  -0.64521  -0.33463
N     2.96946   0.09442  -0.17513
O     1.91298  -1.83103  -0.71717
C    -0.57146  -0.68629  -0.17555
H    -3.47125  -1.18133   0.94232
H    -3.76007  -0.54160  -0.70034
H    -2.74385  -1.99086  -0.47442
H    -2.95922   1.47662   0.65336
H    -1.04595   2.96814   0.97954
H     1.03373   2.14485  -0.33633
H     1.14953   1.63221   1.33560
H     2.95237   1.05470   0.14334
H     3.86650  -0.33938  -0.36299
H    -0.52093  -1.72832  -0.49545
