30
Generated by autodE on: 2022-07-27. E = -746.081825 Ha
C    -1.33755   3.36906   0.19218
O    -0.35886   2.46604  -0.32656
C    -0.60812   1.14749  -0.16902
O    -1.65469   0.76541   0.37077
C     0.41309   0.27601  -0.67560
C     1.73770   0.58228  -1.12699
C     2.21268   2.01748  -1.22469
O     2.53318  -0.33269  -1.43374
N     0.06909  -1.11849  -0.67999
C     0.16119  -1.82891  -1.97174
C    -0.44690  -1.73347   0.34373
C    -0.96323  -3.12536   0.23517
C    -0.45584  -1.07684   1.71719
C    -1.70369  -1.21442   2.53813
O     0.57193  -0.58481   2.14147
H    -0.94133   4.37630   0.01404
H    -2.29993   3.24907  -0.32730
H    -1.48894   3.21015   1.27014
H     1.59595   2.59834  -1.92549
H     2.15586   2.52577  -0.25137
H     3.25458   2.00407  -1.57234
H     0.56978  -1.14835  -2.71998
H    -0.84672  -2.14684  -2.27390
H     0.80661  -2.71068  -1.87597
H    -0.17852  -3.79665  -0.14816
H    -1.80341  -3.16563  -0.47897
H    -1.30584  -3.50070   1.20537
H    -1.60646  -2.11285   3.17151
H    -1.79220  -0.34093   3.19774
H    -2.60144  -1.32122   1.91640
