50
Generated by autodE on: 2022-06-26. E = -1203.761385 Ha. Imaginary frequency = -404.6 cm-1
C    -2.15578   3.72619   1.00224
O    -1.26146   2.74480   0.46462
C    -1.81613   1.63476  -0.03829
O    -3.02213   1.43517   0.02324
C    -0.85202   0.69103  -0.64616
C     0.06371   1.17320  -1.68172
C     0.23459   2.66456  -1.90145
O     0.72802   0.39894  -2.38099
C     0.70332   0.41974   1.16912
C     2.01913   0.77968   0.52375
C     2.59161  -0.39799  -0.23623
C     3.55586  -0.25029  -1.33291
N     3.97540   1.01226  -1.61226
O     4.01382  -1.21970  -1.97238
C     2.25328  -1.65950   0.15209
N     1.31792  -1.93240   1.10257
C     1.32156  -3.23189   1.75751
C     0.43675  -0.90925   1.53604
C    -1.43774  -1.26878   0.58288
C    -1.66141  -2.75944   0.58196
C    -2.36608  -0.58891   1.61482
C    -3.82544  -0.95038   1.47521
O    -1.97148   0.10265   2.53244
N    -1.24487  -0.65698  -0.63346
C    -1.12247  -1.50029  -1.83158
H    -1.52634   4.56587   1.31922
H    -2.87507   4.05789   0.23957
H    -2.70045   3.31381   1.86372
H    -0.72485   3.14072  -2.15695
H     0.61643   3.17285  -1.00688
H     0.94453   2.79845  -2.72787
H     0.18979   1.19542   1.73171
H     1.90828   1.66924  -0.11104
H     2.72010   1.10001   1.32495
H     3.53008   1.82630  -1.20828
H     4.56125   1.14748  -2.42904
H     2.74006  -2.52755  -0.29859
H     1.40147  -4.03972   1.01418
H     0.39449  -3.36959   2.32396
H     2.16840  -3.32340   2.46015
H    -0.02802  -1.09713   2.50258
H    -2.59531  -3.02636   0.06112
H    -1.73955  -3.12290   1.61468
H    -0.83594  -3.28377   0.08552
H    -3.98704  -1.91651   1.98229
H    -4.12310  -1.06434   0.42547
H    -4.43737  -0.18772   1.97256
H    -1.22504  -0.87595  -2.72153
H    -1.93979  -2.23175  -1.83368
H    -0.16116  -2.02967  -1.88034
