23
Generated by autodE on: 2022-06-23. E = -351.521383 Ha
C     1.44459  -0.41063  -3.47033
C     0.87364  -0.78460  -2.30417
C     0.50936  -2.22252  -2.03608
C     0.59766   0.21411  -1.27330
C     0.02711  -0.03088  -0.06693
C    -0.22571   0.99893   0.92014
C    -0.79363   0.83760   2.14208
C    -0.99162   2.01151   3.05888
C    -1.26809  -0.47806   2.69079
H     1.70775   0.63420  -3.66212
H     1.66166  -1.13670  -4.25875
H    -0.57052  -2.32915  -1.83990
H     1.03009  -2.60429  -1.14215
H     0.77048  -2.86509  -2.88869
H     0.88330   1.24469  -1.51645
H    -0.26106  -1.05560   0.18273
H     0.07868   2.01317   0.63452
H    -2.06010   2.13439   3.31217
H    -0.62870   2.95081   2.61638
H    -0.46766   1.85164   4.01842
H    -1.11635  -1.32296   2.00684
H    -2.34339  -0.42351   2.93665
H    -0.74940  -0.70561   3.63889
