51
Generated by autodE on: 2022-06-23. E = -1191.488585 Ha. Imaginary frequency = -216.9 cm-1
C     4.59788   1.32936   1.76728
C     3.74390   1.10817   0.74203
C     3.95344   1.73367  -0.61234
C     2.58239   0.25538   0.95256
C     1.66441  -0.07476   0.00020
C     0.57494  -0.96935   0.24978
C    -0.88944   1.53412   0.47131
C    -0.05197   2.49445  -0.22966
C    -0.30929   2.73789  -1.69654
O     0.88450   3.06212   0.34477
C    -1.04146   1.44008   1.91258
C     0.01236   2.01437   2.81520
O    -2.05622   0.91028   2.38786
O    -1.74116   0.88029  -0.35000
C    -2.22214  -0.34005  -0.29208
C    -2.95149  -0.74772  -1.52370
C    -3.01455   0.21629  -2.67057
O    -3.48980  -1.84930  -1.54575
C    -2.74045  -0.98902   0.99305
O    -2.14611  -1.74312   1.72479
O    -4.03139  -0.67940   1.11740
C    -4.69981  -1.18766   2.28338
C    -0.19205  -1.59189  -0.74162
C    -0.70495  -2.98940  -0.50572
C     0.02846  -1.24828  -2.19303
H     5.47661   1.96928   1.64989
H     4.43097   0.87576   2.74885
H     3.10220   2.38331  -0.87199
H     4.87208   2.33644  -0.63303
H     4.02434   0.96573  -1.40004
H     2.46066  -0.15905   1.95917
H     1.78150   0.31892  -1.01120
H     0.46331  -1.33629   1.27414
H     0.21682   3.65378  -1.99500
H    -1.38016   2.82080  -1.92633
H     0.09138   1.89694  -2.28444
H    -0.26322   1.78690   3.85377
H     0.99987   1.58995   2.57935
H     0.09945   3.10161   2.67638
H    -2.02750   0.62878  -2.91519
H    -3.44935  -0.28994  -3.54146
H    -3.65548   1.06588  -2.38079
H    -5.73235  -0.82637   2.21988
H    -4.21289  -0.80246   3.19051
H    -4.67785  -2.28668   2.28832
H    -0.72642  -3.25867   0.55488
H    -1.70307  -3.14510  -0.94072
H    -0.01930  -3.68094  -1.02770
H    -0.75400  -1.68638  -2.82811
H     0.98969  -1.67922  -2.52367
H     0.07206  -0.16819  -2.37725
