35
Generated by autodE on: 2022-05-30. E = -1541.740136 Ha
C     4.60406  -0.90898   0.43965
N     3.31137  -0.27116   0.61193
C     2.65954   0.28500  -0.40789
O     3.06842   0.39337  -1.56080
C     1.23834   0.79982  -0.06820
C     1.09437   2.15504  -0.64817
N     1.00785   3.25068  -1.01494
O     1.04689   0.85746   1.32312
C    -0.35225   0.79327   1.59497
C    -0.52317   0.31624   2.96747
N    -0.66899  -0.03851   4.06076
C    -1.00829  -0.10205   0.49764
C    -2.28174   0.57480  -0.00033
O    -2.38680   1.77846  -0.10161
O    -3.23431  -0.28591  -0.31222
C    -4.45101   0.25309  -0.86036
C    -1.08646  -1.61315   0.92936
C    -1.59470  -2.46014  -0.22393
C    -0.58380  -2.52213  -1.09624
C     0.53277  -1.70792  -0.46681
O     0.32050  -1.91479   0.93009
C     0.13433  -0.18706  -0.59202
Cl   -0.34425   0.21926  -2.27013
H     5.07394  -1.03339   1.42269
H     4.50148  -1.89835  -0.03543
H     5.24984  -0.28550  -0.19367
H     2.82213  -0.34903   1.49962
H    -0.78950   1.80270   1.52994
H    -4.23326   0.79165  -1.79315
H    -4.92200   0.93362  -0.13778
H    -5.09713  -0.60955  -1.05572
H    -1.53659  -1.77551   1.91327
H    -2.60010  -2.86610  -0.30521
H    -0.54749  -2.98021  -2.08286
H     1.55722  -1.93722  -0.77267
