16
Generated by autodE on: 2022-05-30. E = -546.495980 Ha
C    -3.14800  -1.51472   0.54129
N    -1.80893  -1.00606   0.32483
C    -1.52756   0.30602   0.21876
O    -2.35910   1.22144   0.29512
C    -0.11326   0.65945  -0.00902
C     0.28600   2.00562  -0.12269
N     0.66232   3.10591  -0.22277
O     0.77448  -0.31011  -0.10611
C     2.05498  -0.25629  -0.30714
C     2.74377  -1.47977  -0.35706
N     3.35001  -2.47658  -0.40344
H    -3.43244  -2.21596  -0.25829
H    -3.85204  -0.67483   0.54317
H    -3.22064  -2.04053   1.50647
H    -1.04658  -1.67276   0.25106
H     2.55930   0.70643  -0.42726
