51
Generated by autodE on: 2022-06-01. E = -1130.510066 Ha
C     4.39082   2.54011  -1.77553
N     3.37262   2.14748  -0.82232
C     2.08476   1.96591  -1.18209
O     1.64441   2.29299  -2.29664
C     1.17416   1.39062  -0.17263
C     1.31152   0.37792   0.71571
C     2.42509  -0.53773   0.98909
C     3.28041  -0.97989  -0.04006
C     4.33022  -1.85532   0.23721
C     4.54378  -2.30816   1.54392
C     3.69273  -1.88849   2.57108
C     2.63718  -1.01749   2.29610
C    -0.09730   0.18202   1.28707
O    -0.63551   1.51024   1.22964
C    -0.30837   1.75604  -0.14436
C    -1.05212   0.59954  -0.86338
C    -0.88928  -0.55335   0.16557
C    -2.31952  -1.07053   0.49456
C    -2.84703  -0.59828   1.86115
C    -2.33678  -2.60245   0.47112
N    -3.10590  -0.54187  -0.65561
C    -4.55050  -0.66093  -0.59083
C    -2.57879   0.75528  -1.07426
C    -2.90999   1.09085  -2.53638
C    -3.14453   1.86713  -0.25164
N    -3.68081   2.70670   0.34584
H     4.68941   1.69997  -2.42679
H     4.01662   3.35138  -2.41472
H     5.27646   2.89507  -1.23325
H     3.67144   1.77622   0.07376
H     3.10516  -0.65308  -1.06632
H     4.98004  -2.19393  -0.57307
H     5.36669  -2.99379   1.75890
H     3.84998  -2.24296   3.59237
H     1.97883  -0.69156   3.10374
H    -0.17008  -0.23654   2.29437
H    -0.57517   2.77349  -0.44900
H    -0.58878   0.38482  -1.83233
H    -0.29024  -1.37662  -0.24105
H    -2.24049  -1.02830   2.67121
H    -3.88052  -0.94370   2.01057
H    -2.82681   0.49260   1.96798
H    -1.99987  -2.98171  -0.50532
H    -3.34348  -2.99948   0.67219
H    -1.66298  -2.99565   1.24798
H    -4.82487  -1.68802  -0.31377
H    -4.99107  -0.46207  -1.57875
H    -5.02812   0.02695   0.13512
H    -2.39803   2.01938  -2.82921
H    -2.55582   0.27060  -3.17677
H    -3.98926   1.22839  -2.69055
