21
Generated by autodE on: 2022-07-27. E = -383.595719 Ha
C     0.15082   1.28409  -2.14543
C    -0.10362   0.79781  -0.74195
C    -0.60266   1.65573   0.22840
N    -1.04218   2.38009   1.05210
N     0.02762  -0.56590  -0.41727
C    -0.39166  -1.54596  -1.43574
C     0.44293  -1.00850   0.76125
C     1.10344  -0.08699   1.72228
C     0.27167  -2.44997   1.12630
H     0.28270   2.37655  -2.12748
H     1.07449   0.85542  -2.57061
H    -0.66903   1.07571  -2.85921
H    -1.37948  -1.95153  -1.17393
H     0.33241  -2.36672  -1.50203
H    -0.46288  -1.05231  -2.40762
H     1.75533  -0.66156   2.39582
H     0.38782   0.47791   2.34823
H     1.69018   0.67086   1.17553
H     1.02470  -3.08338   0.62263
H    -0.71859  -2.84052   0.84627
H     0.40323  -2.57913   2.20851
