21
Generated by autodE on: 2022-06-01. E = -383.595636 Ha
C     2.20792   0.96173  -0.68318
C     1.04772   0.31327   0.02661
C     1.13557  -0.02750   1.36931
N     1.21304  -0.33257   2.50830
N    -0.09468  -0.09330  -0.68889
C     0.11186  -0.63463  -2.04495
C    -1.32470  -0.07249  -0.19420
C    -2.42882  -0.78619  -0.90881
C    -1.62020   0.67275   1.05730
H     1.87529   1.73645  -1.39500
H     2.84890   1.46082   0.05927
H     2.85667   0.25849  -1.23991
H    -0.59326  -0.18144  -2.75242
H    -0.03751  -1.72354  -2.03377
H     1.13322  -0.42528  -2.37018
H    -2.15130  -1.81813  -1.17796
H    -2.70069  -0.27278  -1.84854
H    -3.32408  -0.82150  -0.27560
H    -1.40475   0.09200   1.97351
H    -2.68314   0.95178   1.08018
H    -0.98567   1.57384   1.11670
