51
Generated by autodE on: 2022-06-01. E = -1130.402658 Ha. Imaginary frequency = -238.4 cm-1
C     4.53650   2.69022  -1.70992
N     3.53853   2.19488  -0.78379
C     2.25229   2.00478  -1.15075
O     1.79924   2.40984  -2.23479
C     1.36279   1.32865  -0.19071
C     1.51711   0.26818   0.63676
C     2.64413  -0.63257   0.88606
C     3.55447  -0.97159  -0.13669
C     4.61871  -1.83650   0.11649
C     4.79522  -2.38407   1.39231
C     3.89129  -2.06848   2.41151
C     2.82144  -1.20795   2.16040
C     0.08435   0.02142   1.19664
O    -0.40509   1.37081   1.24397
C    -0.15005   1.66185  -0.13881
C    -0.87948   0.50008  -0.83004
C    -0.73552  -0.55834   0.02791
C    -3.07905  -0.93010   0.79109
C    -3.02915  -0.07131   2.01973
C    -3.10777  -2.41336   1.03038
N    -3.54192  -0.43399  -0.37562
C    -3.86959  -1.39499  -1.44044
C    -3.37605   0.88127  -0.80338
C    -3.63632   1.25710  -2.24413
C    -3.38001   1.98195   0.07405
N    -3.37640   2.99661   0.66551
H     4.82500   1.92561  -2.45248
H     4.15011   3.56351  -2.25364
H     5.43149   2.98941  -1.14971
H     3.85507   1.76398   0.07868
H     3.41026  -0.57235  -1.14181
H     5.30954  -2.09311  -0.69007
H     5.62967  -3.06136   1.58836
H     4.01872  -2.49623   3.40869
H     2.12394  -0.96388   2.96389
H     0.01470  -0.47440   2.17027
H    -0.43869   2.68428  -0.40338
H    -1.04874   0.47280  -1.90421
H    -0.74467  -1.61772  -0.22206
H    -2.61513  -0.65216   2.85380
H    -4.05081   0.24391   2.30247
H    -2.41639   0.82411   1.89779
H    -2.72864  -3.00126   0.18437
H    -4.12859  -2.77280   1.26261
H    -2.48032  -2.63953   1.90294
H    -4.36010  -2.27272  -1.01341
H    -2.95904  -1.70748  -1.97521
H    -4.56406  -0.93931  -2.15012
H    -3.30556   2.29374  -2.39812
H    -3.07254   0.62862  -2.94997
H    -4.70460   1.20974  -2.52380
