29
Generated by autodE on: 2022-10-23. E = -745.875767 Ha
C     4.86372  -1.66718  -0.44522
O     3.43277  -1.63231  -0.46099
C     2.85746  -0.46960  -0.10296
O     3.49610   0.52757   0.22243
C     1.41360  -0.54180  -0.15003
N     0.75508   0.55222   0.20495
C    -0.54427   0.86534   0.30626
C    -0.75227   2.23064   0.78666
C    -2.15075   2.77412   0.90297
O     0.22724   2.93470   1.08315
C    -1.60068  -0.09305  -0.06439
C    -1.58386  -0.72922  -1.32120
C    -2.59219  -1.62565  -1.67733
C    -3.63425  -1.90408  -0.78634
C    -3.65992  -1.28050   0.46477
C    -2.65135  -0.38467   0.82504
H     5.24722  -1.46950   0.56696
H     5.14638  -2.67781  -0.76295
H     5.27959  -0.92306  -1.14083
H     0.88415  -1.44327  -0.44743
H     1.35223   1.35191   0.48733
H    -2.10777   3.87157   0.88811
H    -2.59012   2.46073   1.86455
H    -2.80893   2.40658   0.10384
H    -0.78368  -0.50759  -2.03048
H    -2.56760  -2.10459  -2.65898
H    -4.42340  -2.60559  -1.06674
H    -4.46703  -1.49670   1.16861
H    -2.67033   0.08652   1.80913
