39
Generated by autodE on: 2022-10-23. E = -884.872529 Ha
C     1.78173   2.97534   1.18650
O     0.78867   3.00013   0.17244
C     0.76117   1.86564  -0.67768
C     1.92976   1.88352  -1.69312
C     2.37164   3.22676  -2.19144
O     2.40768   0.83617  -2.09023
C     0.70060   0.59827   0.05904
C     0.21900  -0.41471   0.51423
C    -0.78741  -1.43705   0.77250
C    -0.64674  -2.03487   2.19662
C    -1.80717  -2.81718   2.73370
O     0.38038  -1.86221   2.82450
C    -0.61327  -2.64215  -0.21062
C     0.78017  -2.95272  -0.66477
O    -1.58286  -3.29134  -0.54483
C    -2.17333  -0.75643   0.56130
C    -2.30894   0.08495  -0.72489
C    -1.84249   1.56845  -0.70314
C    -0.56762   1.93866  -1.48831
H     1.59927   2.16053   1.90833
H     2.79831   2.85409   0.77203
H     1.72643   3.93868   1.71158
H     2.86009   3.78543  -1.37738
H     1.50255   3.82340  -2.50874
H     3.07528   3.10107  -3.02439
H    -1.49645  -3.37404   3.62691
H    -2.21503  -3.49670   1.97183
H    -2.61467  -2.11834   3.00738
H     1.13911  -2.14347  -1.32085
H     0.79800  -3.90867  -1.20314
H     1.46010  -2.97867   0.20168
H    -2.92668  -1.55509   0.54534
H    -2.38341  -0.12632   1.43956
H    -1.83048  -0.44498  -1.56588
H    -3.38451   0.08893  -0.95974
H    -1.74773   1.92735   0.33469
H    -2.65172   2.16847  -1.14673
H    -0.46859   1.28661  -2.37002
H    -0.63953   2.97433  -1.85391
