68
Generated by autodE on: 2022-10-23. E = -1630.735272 Ha. Imaginary frequency = -243.2 cm-1
C   -14.83393   2.43943  -9.58707
O   -13.79642   2.50485  -8.59941
C   -14.12443   2.17848  -7.34169
O   -15.22552   1.74892  -7.02592
C   -13.06118   2.44699  -6.37253
N   -11.86708   2.85505  -6.85795
C   -10.79971   3.32088  -6.17542
C   -10.40408   2.78315  -4.86266
C   -11.03912   1.52236  -4.32149
O    -9.49178   3.31697  -4.22215
C    -9.88249   4.16236  -6.97695
C   -10.42525   5.08211  -7.89622
C    -9.59583   5.86946  -8.69303
C    -8.20555   5.75916  -8.58264
C    -7.65630   4.85080  -7.67235
C    -8.48400   4.05827  -6.87559
C   -12.48082   4.73788  -4.73825
C   -13.54284   4.21269  -5.13231
C   -15.03034   4.22561  -5.06616
C   -15.60465   4.60332  -6.45341
C   -17.08638   4.64203  -6.70189
O   -14.83189   4.94222  -7.33476
C   -15.53767   2.91141  -4.40864
C   -16.99384   2.54475  -4.42903
O   -14.74162   2.22521  -3.79129
C   -15.46768   5.35570  -4.06077
C   -15.07140   6.79023  -4.45948
C   -13.93530   7.43034  -3.65220
C   -12.49286   7.15887  -4.07690
C   -11.89810   5.74273  -3.79881
O   -12.21622   5.44442  -2.44371
C   -12.11100   4.09772  -2.00780
C   -10.37481   5.99467  -3.96495
C    -9.52987   6.04760  -2.72447
O    -9.94459   6.30578  -5.05930
H   -14.35675   2.68987 -10.54135
H   -15.62173   3.17032  -9.35464
H   -15.26421   1.42919  -9.63026
H   -13.12277   1.88452  -5.45175
H   -11.91847   3.16390  -7.83057
H   -11.97518   1.75087  -3.79175
H   -11.25849   0.79083  -5.11215
H   -10.33925   1.08599  -3.59695
H   -11.50902   5.21301  -7.95479
H   -10.03670   6.58537  -9.39063
H    -7.55367   6.38160  -9.20000
H    -6.57159   4.75416  -7.58352
H    -8.04163   3.35335  -6.17320
H   -17.67015   4.91978  -5.81682
H   -17.27881   5.34598  -7.52231
H   -17.41145   3.64156  -7.02612
H   -17.64388   3.40289  -4.21650
H   -17.25502   2.15966  -5.42462
H   -17.16117   1.75294  -3.68762
H   -15.02839   5.09473  -3.08694
H   -16.55741   5.29368  -3.94204
H   -14.83138   6.85022  -5.53297
H   -15.96345   7.42015  -4.32110
H   -14.05599   7.18601  -2.58492
H   -14.05769   8.52358  -3.72512
H   -11.85480   7.87556  -3.53330
H   -12.35277   7.36184  -5.14828
H   -12.92441   3.47792  -2.41575
H   -11.14533   3.64441  -2.27916
H   -12.19537   4.11866  -0.91188
H    -9.55924   5.09683  -2.17645
H    -9.92601   6.82302  -2.04944
H    -8.49611   6.29087  -3.00245
