28
Generated by autodE on: 2022-06-18. E = -1040.340207 Ha
C     2.35007  -2.29668  -1.93020
O     1.99015  -1.66660  -0.68035
C     1.41556  -0.48479  -0.74216
O     1.18613   0.15698  -1.73786
C     0.94530  -0.01717   0.65894
C     1.93907  -0.33337   1.68998
N     2.71675  -0.57476   2.51344
O     0.74626   1.38633   0.62618
C    -0.63003   1.70966   0.41188
C    -1.12164   2.42348   1.61377
N    -1.49419   2.96288   2.56831
C    -0.69814   2.65135  -0.72851
N    -0.65693   3.47674  -1.53945
C    -1.38866   0.35207   0.25219
C    -1.73473  -0.06316  -1.17691
O    -2.14836   0.74308  -1.98698
C    -1.65409  -1.50427  -1.49843
C    -1.16225  -2.43186  -0.65398
C    -0.60668  -2.08672   0.66730
O    -0.23699  -2.93350   1.45939
C    -0.46023  -0.60806   1.00111
H     2.78831  -3.26213  -1.65785
H     1.44919  -2.43542  -2.54312
H     3.08003  -1.67216  -2.46195
H    -2.36132   0.41230   0.76326
H    -2.03357  -1.77812  -2.48569
H    -1.14165  -3.49122  -0.92013
H    -0.59990  -0.49837   2.08444
