16
Generated by autodE on: 2022-06-18. E = -658.620769 Ha
C     3.67432   1.17926   0.09805
O     2.26497   0.88467   0.07645
C     1.92742  -0.38851  -0.04433
O     2.69025  -1.32917  -0.13930
C     0.45938  -0.58733  -0.05656
C    -0.05997  -1.89730  -0.17890
N    -0.44801  -2.99075  -0.27987
O    -0.28421   0.47173   0.05139
C    -1.57627   0.69811   0.07530
C    -2.55378  -0.31648  -0.04089
N    -3.39869  -1.11331  -0.13508
C    -1.95090   2.05479   0.22117
N    -2.28716   3.16336   0.34214
H     4.14106   0.86017  -0.84447
H     4.15468   0.66624   0.94300
H     3.74896   2.26566   0.21558
