12
Generated by autodE on: 2022-06-18. E = -381.636096 Ha
O    -2.42691  -1.09926  -0.11109
C    -1.31044  -0.59343  -0.06027
C    -1.13669   0.87751   0.01666
C     0.08706   1.43133   0.07376
C     1.31044   0.59342   0.06054
O     2.42692   1.09926   0.11095
C     1.13669  -0.87751  -0.01668
C    -0.08706  -1.43133  -0.07378
H    -2.05154   1.47464   0.02445
H     0.24019   2.51159   0.13095
H     2.05154  -1.47464  -0.02464
H    -0.24019  -2.51158  -0.13113
