36
Generated by autodE on: 2022-07-01. E = -1197.573524 Ha
C    -1.58429  -2.51846   3.60806
O    -1.50652  -1.83012   2.34706
C    -1.49461  -0.50146   2.38451
O    -1.52887   0.16001   3.39477
C    -1.44070   0.07688   0.95835
C    -2.77684  -0.30384   0.29546
O    -3.83224  -0.20405   0.88312
O    -2.64543  -0.69382  -0.96212
C    -3.85527  -1.01366  -1.67466
C    -0.27752  -0.39584   0.21889
C     0.68485  -0.37824  -0.51234
C     1.68995   0.20816  -1.39885
C     1.86025  -0.59115  -2.62585
N     1.97749  -1.20078  -3.60416
C     3.07227   0.26017  -0.69395
F     3.98643   0.83741  -1.48293
F     3.50369  -0.97463  -0.40364
F     3.01368   0.95072   0.44772
C     1.17542   1.64555  -1.79120
C     0.54999   2.49494  -0.66760
C    -0.95909   2.30701  -0.34426
C    -1.32535   1.63610   0.99382
H    -0.71818  -2.26174   4.23403
H    -2.51288  -2.24714   4.12996
H    -1.57899  -3.58722   3.36731
H    -4.51293  -0.13431  -1.71547
H    -4.37563  -1.84514  -1.17941
H    -3.53930  -1.30424  -2.68252
H     2.03012   2.17493  -2.23677
H     0.43780   1.50013  -2.59343
H     0.68246   3.53411  -1.00488
H     1.14464   2.41057   0.25351
H    -1.46697   1.79538  -1.17819
H    -1.40553   3.31170  -0.30378
H    -0.57461   1.88476   1.75756
H    -2.29070   2.01498   1.35962
