43
Generated by autodE on: 2022-06-19. E = -1053.719387 Ha
C    -3.74092   3.22328  -0.38971
N    -3.01510   1.97233  -0.29000
C    -1.68341   1.90176  -0.17457
O    -0.91333   2.86458  -0.13871
C    -1.10989   0.50648  -0.08908
O    -2.07733  -0.55136  -0.13763
C    -1.16110  -1.60047   0.08612
C    -1.82144  -2.96085   0.27339
C    -3.05308  -3.20769  -0.53590
O    -1.30934  -3.76285   1.02618
C    -0.15242  -1.46294  -1.06239
C    -0.08476   0.08772  -1.24085
C    -0.67222   0.49991  -2.59587
C     1.26596   0.72560  -1.03774
C     2.33164   0.19060  -0.41085
C     3.58446   0.90139  -0.21974
C     4.68930   0.43983   0.41438
C     4.80392  -0.92142   1.04045
C     5.91763   1.29659   0.54059
O    -0.48678  -1.19100   1.30851
C    -0.42441   0.16403   1.24027
O     0.08620   0.85830   2.07404
H    -3.02518   4.03741  -0.55395
H    -4.44622   3.18797  -1.23259
H    -4.30681   3.43012   0.53257
H    -3.53713   1.10112  -0.27662
H    -3.85413  -2.53968  -0.17813
H    -2.87380  -2.95368  -1.59266
H    -3.36452  -4.25496  -0.43670
H    -0.54911  -1.94509  -1.96422
H     0.79713  -1.93654  -0.79584
H    -0.67834   1.59433  -2.70576
H    -0.05774   0.07743  -3.40498
H    -1.69923   0.12482  -2.70976
H     1.34103   1.75099  -1.41422
H     2.26587  -0.82420  -0.00956
H     3.62121   1.91616  -0.63323
H     5.64753  -1.47677   0.59416
H     5.03444  -0.82733   2.11627
H     3.89861  -1.53331   0.93806
H     6.78988   0.79937   0.07970
H     5.78820   2.28149   0.06839
H     6.17945   1.44983   1.60286
