26
Generated by autodE on: 2022-06-18. E = -669.376966 Ha
C    -2.67075  -1.75635   0.58594
C    -2.98582  -0.33307   0.17113
O    -4.15980   0.05224   0.09218
C    -1.85783   0.52805  -0.12008
N    -0.61223   0.00691   0.00364
C     0.50755  -0.29546   0.06815
C     1.87377  -0.64860   0.14840
C     2.25322  -1.95989   0.50320
C     3.60793  -2.27282   0.57440
C     4.57521  -1.29960   0.29656
C     4.19153  -0.00014  -0.05585
C     2.84357   0.33792  -0.13288
C    -1.86008   1.92240  -0.54038
C    -3.18177   2.62705  -0.71532
O    -0.79426   2.52039  -0.74921
H    -3.61003  -2.29056   0.77814
H    -2.10702  -2.27900  -0.20361
H    -2.04777  -1.77168   1.49478
H     1.48877  -2.70821   0.71607
H     3.91188  -3.28493   0.84866
H     5.63520  -1.55561   0.35516
H     4.94875   0.75618  -0.27146
H     2.52474   1.34526  -0.40484
H    -3.81349   2.10383  -1.44803
H    -3.74541   2.63898   0.22954
H    -2.98652   3.65521  -1.04899
