44
Generated by autodE on: 2022-06-18. E = -905.332296 Ha. Imaginary frequency = -346.3 cm-1
C    -1.30958   2.97794  -0.94182
C    -2.22370   1.95262  -0.30778
O    -3.44564   1.99923  -0.50119
C    -1.58798   0.90502   0.47263
C    -2.24317  -0.04584   1.35947
C    -3.74979  -0.11293   1.39210
O    -1.57357  -0.80154   2.08295
N    -0.22961   0.92173   0.56528
C     0.71624   0.26910   0.18365
C     2.11143   0.12330   0.55555
C     2.41078  -0.66772   1.68053
C     3.74018  -0.85720   2.05406
C     4.76979  -0.26115   1.31658
C     4.46872   0.53051   0.20338
C     3.14277   0.71987  -0.18855
C     0.20058  -1.08762  -1.39530
C     0.90055  -0.35155  -2.52747
C     0.94353  -2.31791  -0.89737
C    -1.20477  -1.13394  -1.40215
C    -1.91708  -2.25777  -0.71107
C    -2.01444  -0.37384  -2.41086
H    -1.91484   3.71872  -1.47995
H    -0.69103   3.48029  -0.18192
H    -0.61896   2.48923  -1.64811
H    -4.04502  -0.90280   2.09590
H    -4.16323  -0.32289   0.39576
H    -4.17594   0.85057   1.71006
H     1.59483  -1.12254   2.24506
H     3.97410  -1.47023   2.92714
H     5.81030  -0.41188   1.61272
H     5.27164   1.00400  -0.36565
H     2.90213   1.33877  -1.05320
H     0.71270  -0.86707  -3.48618
H     0.55634   0.68618  -2.63872
H     1.98814  -0.33702  -2.37591
H     0.62026  -2.63843   0.10229
H     0.76892  -3.16212  -1.58810
H     2.02661  -2.13909  -0.86176
H    -2.99707  -2.07239  -0.64067
H    -1.77672  -3.18948  -1.29245
H    -1.52666  -2.45188   0.29685
H    -2.11866  -1.00054  -3.31941
H    -1.55261   0.56916  -2.72577
H    -3.03137  -0.16620  -2.04938
