20
Generated by autodE on: 2022-06-28. E = -457.715328 Ha
C    -3.16211  -0.28661   0.10162
N    -1.81483   0.21924  -0.10422
C    -1.62141   1.37471  -0.87172
C    -0.40230   1.84409  -1.18061
C     0.87577   1.17668  -0.73571
C     0.56804  -0.08034   0.06176
C     1.64399  -0.92879   0.59923
N     2.91163  -0.51637   0.34628
O     1.43659  -1.97166   1.25256
C    -0.71437  -0.46732   0.31332
H    -3.13476  -1.10958   0.82701
H    -3.81528   0.50626   0.49727
H    -3.60231  -0.66090  -0.83835
H    -2.53890   1.86825  -1.19738
H    -0.33299   2.75615  -1.77787
H     1.48634   1.88528  -0.13885
H     1.50819   0.94207  -1.61625
H     3.68258  -1.07524   0.69492
H     3.12089   0.32139  -0.18131
H    -0.90620  -1.37587   0.88640
