44
Generated by autodE on: 2022-07-28. E = -1055.476811 Ha
C    -4.91340   1.62855  -0.91186
O    -3.67903   1.39034  -0.23506
C    -2.72881   0.72015  -0.92714
O    -2.92958   0.31236  -2.08033
C    -1.50856   0.49681  -0.19899
N    -0.62672  -0.27095  -0.91911
C     0.65175  -0.62003  -0.79148
C     1.52923   0.02332   0.19845
C     2.35702  -0.75665   1.02748
C     3.14335  -0.15661   2.01105
C     3.12506   1.23253   2.17506
C     2.32635   2.01956   1.33802
C     1.53428   1.42200   0.35904
C     1.15241  -1.66631  -1.68948
C     0.28330  -2.62234  -2.26184
C     0.76471  -3.58507  -3.14854
C     2.12457  -3.63117  -3.47287
C     2.99976  -2.69945  -2.90247
C     2.52330  -1.72833  -2.02380
C    -1.27043   0.90793   1.18864
C    -0.74570  -0.00135   2.13054
C    -0.45376   0.40283   3.43229
C    -0.69035   1.72302   3.83175
C    -1.23458   2.63015   2.91629
C    -1.51771   2.22960   1.61001
H    -4.75429   2.21063  -1.83221
H    -5.41231   0.68173  -1.16886
H    -5.53713   2.19946  -0.21301
H    -1.09204  -0.62681  -1.76388
H     2.35877  -1.84245   0.91573
H     3.76616  -0.77708   2.65950
H     3.73491   1.70175   2.95048
H     2.31509   3.10560   1.45373
H     0.90954   2.04182  -0.28516
H    -0.77476  -2.63425  -1.99004
H     0.07418  -4.31653  -3.57481
H     2.50139  -4.39183  -4.16028
H     4.06325  -2.72388  -3.15160
H     3.21371  -0.99535  -1.60473
H    -0.55747  -1.03433   1.83412
H    -0.03704  -0.31763   4.14023
H    -0.45455   2.04121   4.84993
H    -1.42381   3.66373   3.21665
H    -1.91201   2.95195   0.89411
