44
Generated by autodE on: 2022-06-28. E = -1055.476853 Ha
C     4.08802  -1.53711  -2.93016
O     3.30980  -0.79423  -1.99156
C     2.03904  -1.21401  -1.79197
O     1.58449  -2.21084  -2.37208
C     1.29827  -0.43550  -0.83596
N     0.05375  -0.97097  -0.60903
C    -1.04957  -0.57288   0.02107
C    -1.21364   0.81256   0.48627
C    -1.68875   1.07281   1.78538
C    -1.78704   2.38230   2.25571
C    -1.42380   3.45370   1.43275
C    -0.97678   3.20742   0.12982
C    -0.87087   1.89957  -0.34019
C    -2.10449  -1.57230   0.22372
C    -1.80933  -2.95229   0.29304
C    -2.82765  -3.89368   0.44226
C    -4.16094  -3.48365   0.54395
C    -4.46688  -2.11861   0.49226
C    -3.45505  -1.17365   0.33351
C     1.83186   0.70590  -0.08528
C     2.49869   1.76161  -0.73867
C     2.94858   2.87453  -0.02739
C     2.73712   2.96495   1.35255
C     2.09169   1.91668   2.01820
C     1.65138   0.79922   1.31064
H     4.21418  -2.57992  -2.60168
H     3.61972  -1.52976  -3.92612
H     5.06507  -1.04039  -2.97450
H    -0.01467  -1.88731  -1.07033
H    -1.95407   0.23831   2.43702
H    -2.13905   2.56718   3.27321
H    -1.49310   4.47879   1.80388
H    -0.70190   4.03985  -0.52172
H    -0.51529   1.71567  -1.35463
H    -0.77257  -3.29475   0.26231
H    -2.57469  -4.95503   0.49818
H    -4.95608  -4.22196   0.66967
H    -5.50528  -1.78737   0.56750
H    -3.71019  -0.11494   0.27311
H     2.63956   1.71498  -1.81926
H     3.45224   3.68634  -0.55806
H     3.07504   3.84413   1.90606
H     1.92830   1.97055   3.09723
H     1.15071  -0.01051   1.84358
