64
Generated by autodE on: 2022-06-28. E = -1513.157233 Ha. Imaginary frequency = -363.1 cm-1
C    -5.16157  -1.05078  -1.12413
O    -4.04118  -0.74823  -0.28955
C    -2.87782  -1.34653  -0.59910
O    -2.82537  -2.19586  -1.49723
C    -1.70775  -0.94436   0.18761
C    -1.75734  -0.03316   1.32961
C    -0.80409  -0.10807   2.37069
C    -0.76047   0.82742   3.40192
C    -1.68524   1.87489   3.45399
C    -2.66984   1.94382   2.46506
C    -2.70839   1.01918   1.42294
N    -0.65072  -1.80265  -0.11412
C     0.70466  -1.53970  -0.30351
C     1.64797  -1.61001   0.85577
C     1.37801  -2.49679   1.91436
C     2.27726  -2.65380   2.97077
C     3.48047  -1.94209   2.98172
C     3.78202  -1.09077   1.91385
C     2.88035  -0.93406   0.86016
C     1.22831  -2.20111  -1.55391
C     0.43623  -2.22092  -2.72247
C     0.90140  -2.79879  -3.90361
C     2.17632  -3.37059  -3.95628
C     2.97233  -3.36481  -2.80836
C     2.50459  -2.79151  -1.62356
C     0.66949   0.58293  -0.87778
C     1.19132   1.50058   0.21818
C     0.29918   2.69250   0.47204
C     0.64779   3.69555   1.49098
N     1.81933   3.49827   2.14689
O    -0.07526   4.67495   1.76432
C    -0.89688   2.82460  -0.15401
N    -1.36409   1.92280  -1.07342
C    -2.63830   2.12856  -1.74856
C    -0.62480   0.80784  -1.38092
H    -4.95597  -0.77102  -2.16818
H    -5.99621  -0.45600  -0.73398
H    -5.40713  -2.12177  -1.07820
H    -0.08314  -0.91449   2.37670
H     0.00809   0.73174   4.17323
H    -1.64370   2.61843   4.25300
H    -3.41056   2.74729   2.48617
H    -3.47953   1.12239   0.66833
H    -1.00337  -2.42139  -0.84569
H     0.44985  -3.07005   1.89934
H     2.03927  -3.34389   3.78377
H     4.18556  -2.06172   3.80753
H     4.72779  -0.54398   1.89839
H     3.14450  -0.28543   0.02523
H    -0.56341  -1.78666  -2.71607
H     0.26297  -2.79593  -4.79021
H     2.54367  -3.81891  -4.88225
H     3.96591  -3.81902  -2.82750
H     3.14143  -2.82003  -0.74094
H     1.39513   0.26178  -1.62473
H     2.21112   1.83455  -0.04120
H     1.30848   0.93631   1.16076
H     2.07351   4.14040   2.88938
H     2.40431   2.68809   1.98707
H    -1.54596   3.67451   0.05083
H    -3.27391   1.23914  -1.64504
H    -2.48283   2.32499  -2.82168
H    -3.15313   2.98701  -1.30167
H    -0.97913   0.26211  -2.25509
