21
Generated by autodE on: 2022-10-06. E = -532.926625 Ha
C     2.57997   1.41734  -0.29204
N     2.85306   0.16344   0.38989
C     2.08112  -0.93536   0.34943
O     2.35501  -2.01874   0.87356
C     0.83972  -0.82710  -0.44138
N    -0.32400  -0.66021  -0.19634
C    -1.57806  -0.36036  -0.06366
C    -2.58396  -1.41400   0.30484
C    -1.92219   1.05143  -0.30345
C    -3.37305   1.42601  -0.15796
O    -1.06394   1.88336  -0.60892
H     1.49826   1.59562  -0.35757
H     3.02243   2.24265   0.28138
H     3.00187   1.43329  -1.31060
H     3.75281   0.04213   0.84981
H    -3.35987  -1.50863  -0.47200
H    -3.09302  -1.16308   1.24933
H    -2.09241  -2.38862   0.42547
H    -3.49871   2.49730  -0.36074
H    -3.99461   0.84026  -0.85440
H    -3.72981   1.19568   0.85895
