31
Generated by autodE on: 2022-10-06. E = -987.978630 Ha. Imaginary frequency = -314.5 cm-1
C     4.47045  -1.31363   0.31658
N     3.06861  -0.95885   0.24244
C     2.37214  -0.63953   1.33631
O     2.80794  -0.61056   2.49377
C     0.96609  -0.24199   1.05971
N    -0.10742  -0.63411   1.46479
C    -1.42103  -0.52132   1.38469
C    -2.20611   0.11670   2.48976
C    -2.12391  -1.29279   0.35591
C    -1.31385  -2.10980  -0.61708
O    -3.35796  -1.25749   0.30576
C    -0.90449   1.60316  -0.11070
C    -1.97860   1.29354  -1.10892
O    -1.66299   0.72901  -2.19741
O    -3.15610   1.63675  -0.78874
C     0.45687   1.46262  -0.28961
C     1.11880   1.04041  -1.59825
O     1.38918  -0.18787  -1.79421
O     1.40854   1.97140  -2.38117
H     5.08820  -0.46132   0.64617
H     4.81012  -1.63092  -0.67697
H     4.63101  -2.13970   1.02627
H     2.58582  -0.79329  -0.65866
H    -2.66918  -0.63448   3.15300
H    -3.01728   0.70805   2.04001
H    -1.57067   0.77819   3.09403
H    -1.98005  -2.50293  -1.39571
H    -0.51482  -1.51179  -1.07713
H    -0.83419  -2.95125  -0.08962
H    -1.24878   2.15845   0.76609
H     1.10298   2.08744   0.33710
