36
Generated by autodE on: 2022-10-07. E = -1215.835525 Ha
C     4.16232   2.61565  -0.33795
N     2.86411   1.97679  -0.40188
C     2.72483   0.68197  -0.72359
O     3.65364  -0.03658  -1.10666
C     1.30851   0.15205  -0.70680
N     0.25927   0.96905  -0.06512
C    -0.83782   0.09728  -0.48298
C    -2.23724   0.55436  -0.20015
C    -3.31143  -0.18648  -0.71387
C    -4.62504   0.19253  -0.43174
C    -4.87496   1.30712   0.37627
C    -3.80567   2.04195   0.89615
C    -2.49004   1.66841   0.60733
O    -0.62259   0.03654  -1.93606
C     0.71507   0.05051  -2.10925
O     1.24999  -0.03831  -3.18641
C    -0.44778  -1.31456   0.05939
C    -0.95561  -1.45299   1.51165
O    -0.61581  -0.53636   2.31214
O    -1.69641  -2.42895   1.77511
C     1.10812  -1.27477  -0.10192
C     1.87708  -1.47599   1.22926
O     1.80280  -2.63136   1.71614
O     2.50250  -0.49832   1.71136
H     4.02533   3.69957  -0.23866
H     4.75107   2.25359   0.52198
H     4.73799   2.41209  -1.25268
H     2.04106   2.47019  -0.07255
H     0.33711   0.85157   0.95396
H    -3.11692  -1.06049  -1.33888
H    -5.45676  -0.38642  -0.83981
H    -5.90295   1.60083   0.60147
H    -3.99467   2.91188   1.52937
H    -1.65747   2.24352   1.01324
H    -0.90751  -2.09604  -0.55625
H     1.44360  -2.05747  -0.79508
