14
Generated by autodE on: 2022-06-18. E = -270.687346 Ha
C    -2.33409  -0.27507  -0.19183
C    -0.94845   0.14080   0.19846
C    -0.88268   1.15226   1.30349
C     0.12975  -0.39156  -0.43496
C     1.51918  -0.07545  -0.15434
O     2.46394  -0.58327  -0.75381
H    -2.86023  -0.70248   0.67935
H    -2.33599  -1.01138  -1.00728
H    -2.92100   0.60675  -0.50211
H    -1.39565   0.75482   2.19567
H     0.13447   1.44574   1.58695
H    -1.44007   2.05689   1.00653
H    -0.02480  -1.12611  -1.23245
H     1.71644   0.66876   0.64957
