35
Generated by autodE on: 2022-06-18. E = -898.723735 Ha. Imaginary frequency = -380.0 cm-1
C    -4.69083   0.44148  -1.12512
O    -3.46247   0.12662  -0.43884
C    -2.34773   0.20421  -1.15325
O    -2.26084   0.52204  -2.32051
C    -1.15886  -0.04636  -0.32792
N    -0.50596  -1.00053   0.03099
C     0.71944  -1.29425   0.47470
C     0.88268  -2.10153   1.72406
C     1.72469  -1.35232  -0.60980
O     1.55240  -0.93556  -1.74352
O     2.87420  -1.89418  -0.18749
C     3.95196  -1.93434  -1.13240
C     1.22171   1.06612   1.03629
C     2.63577   1.17305   0.52217
C     1.09280   0.91400   2.52837
C     0.19271   1.63551   0.26964
C    -1.01115   2.28187   0.78607
O    -1.39930   2.32774   1.94924
H    -4.65272   1.46944  -1.51202
H    -5.48307   0.34212  -0.37525
H    -4.85423  -0.26281  -1.95259
H     0.10018  -1.84812   2.45116
H     0.82719  -3.18245   1.50927
H     1.86450  -1.90326   2.17236
H     4.23693  -0.91650  -1.43522
H     4.78659  -2.42249  -0.61625
H     3.66296  -2.51350  -2.02110
H     2.67782   1.19529  -0.57532
H     3.07626   2.11677   0.89269
H     3.27349   0.35839   0.89265
H     1.89013   0.26994   2.92539
H     1.19860   1.90206   3.01206
H     0.11792   0.51377   2.83045
H     0.41945   1.89885  -0.76850
H    -1.60489   2.79172  -0.01224
