28
Generated by autodE on: 2022-12-30. E = -595.568191 Ha
C     2.87806   2.21802  -1.11531
N     1.78621   1.53186  -0.46003
C     1.56000   0.20836  -0.65017
O     2.31002  -0.47776  -1.37404
C     0.40724  -0.38088   0.03477
C    -0.61671   0.22765   0.69826
O    -0.72082   1.54893   0.91228
C    -1.83135   2.04678   1.66386
C    -1.69056  -0.80896   0.96907
C    -2.32205  -1.11819  -0.43189
C    -1.17011  -1.84642  -1.18484
C    -0.01477  -1.83452  -0.13605
C    -0.80811  -2.05839   1.16696
H     2.89703   3.26203  -0.77798
H     2.77291   2.20748  -2.21378
H     3.84741   1.75408  -0.87203
H     1.11440   2.06092   0.08679
H    -1.70103   3.13474   1.71458
H    -2.78251   1.81514   1.16163
H    -1.83499   1.63009   2.68250
H    -2.41602  -0.56671   1.75298
H    -2.65894  -0.20081  -0.93525
H    -3.19716  -1.77167  -0.30180
H    -0.87229  -1.33714  -2.11240
H    -1.45286  -2.87897  -1.44082
H     0.80728  -2.52664  -0.35454
H    -0.18184  -2.00331   2.06932
H    -1.39191  -2.99168   1.17241
