18
Generated by autodE on: 2022-12-30. E = -642.786870 Ha
C     2.06134   1.55426   1.62530
O     1.47892   0.51475   0.80618
C     0.16859   0.47301   0.74831
O    -0.62008   1.17625   1.33446
C    -0.33345  -0.64976  -0.13097
O    -0.81477  -0.50027  -1.30255
N    -0.86358   0.58993  -2.12073
C    -0.20252   1.65223  -1.68172
N     0.35244   2.66125  -1.45271
C    -0.42268  -2.02506   0.45441
C    -0.97808  -3.11749  -0.39676
O    -0.02346  -2.15198   1.59958
H     1.72208   1.44480   2.66413
H     3.14470   1.41482   1.55242
H     1.76711   2.53649   1.23033
H    -0.37123  -3.22559  -1.31021
H    -0.97993  -4.05496   0.17222
H    -2.00088  -2.86080  -0.71642
