18
Generated by autodE on: 2023-01-01. E = -642.786873 Ha
C     0.73479   0.82702  -2.84653
O     0.15095   0.88153  -1.52468
C     0.64113   0.05778  -0.62889
O     1.55850  -0.71789  -0.76152
C    -0.03762   0.19219   0.71462
O    -0.84508  -0.66390   1.20760
N    -1.43375  -1.76358   0.65462
C    -1.25176  -1.90011  -0.65170
N    -1.21377  -2.14452  -1.79947
C     0.37726   1.31232   1.61784
C    -0.24979   1.39447   2.96926
O     1.20745   2.08676   1.17327
H     1.80822   1.05245  -2.78998
H     0.20760   1.58591  -3.43352
H     0.57814  -0.17390  -3.27187
H    -1.34195   1.50147   2.86829
H     0.16779   2.25166   3.51107
H    -0.06584   0.46156   3.52596
