46
Generated by autodE on: 2022-12-30. E = -1238.370746 Ha. Imaginary frequency = -100.3 cm-1
C     1.22136   2.84332  -2.35371
N     0.23835   1.98136  -1.72958
C     0.07816   1.97853  -0.38779
O     0.54959   2.87520   0.33001
C    -0.76738   0.91552   0.21608
C    -1.61152   1.28434   1.43892
C    -2.80882   2.11571   0.88039
C    -3.62338   1.05700   0.08428
C    -2.81015  -0.26879   0.31975
C    -2.31731  -0.04438   1.75981
C    -1.54602  -0.02725  -0.46640
O    -1.31214  -0.42700  -1.69520
C    -2.25871  -1.28224  -2.36688
N    -0.26798  -2.70224   0.95074
C     0.04906  -2.88893  -0.31335
N     0.22064  -3.17088  -1.44393
O     0.39874  -1.65083   1.58311
C     1.09818  -0.71991   1.01645
C     1.66091   0.31003   1.95035
C     1.17812   0.32465   3.36460
O     2.53068   1.04390   1.51040
C     1.97262  -1.03629  -0.18842
O     2.84783  -1.86124  -0.04492
O     1.73114  -0.33197  -1.26070
C     2.54004  -0.59487  -2.42270
H     1.15066   2.73678  -3.44347
H     1.04024   3.89526  -2.09039
H     2.24767   2.58650  -2.03757
H    -0.03647   1.14128  -2.22779
H    -1.05869   1.77692   2.24498
H    -2.46975   2.95509   0.25750
H    -3.39730   2.52933   1.71225
H    -3.71944   1.29523  -0.98423
H    -4.63441   0.92232   0.49387
H    -3.35708  -1.18898   0.09532
H    -3.15381   0.08003   2.46212
H    -1.65220  -0.83248   2.12370
H    -1.78736  -1.55758  -3.31600
H    -2.45426  -2.18104  -1.77008
H    -3.19004  -0.72785  -2.54841
H     1.66776  -0.51020   3.89580
H     1.46952   1.27111   3.83692
H     0.09557   0.16390   3.43712
H     3.59543  -0.38599  -2.20140
H     2.41530  -1.64402  -2.72410
H     2.16640   0.07791  -3.20145
