46
Generated by autodE on: 2022-06-04. E = -3680.541409 Ha
C     1.24453   3.32898   2.29557
C     1.27894   1.89587   1.83563
O     2.22817   1.16885   2.06493
C     0.11041   1.40095   0.94400
C    -1.27612   1.62540   1.54465
C    -2.39406   1.67013   0.69707
C    -3.68103   1.79261   1.22254
C    -3.87038   1.87815   2.60563
C    -2.76250   1.84963   3.45572
C    -1.47364   1.72524   2.92889
N     0.34583   2.14459  -0.30723
C     0.51613   1.23020  -1.43039
C    -0.56761   1.33510  -2.42690
N    -1.43262   1.45532  -3.19085
C     0.55358  -0.15579  -0.80081
C     0.33101  -0.05158   0.51985
C     0.11574  -1.21608   1.48442
C     0.38094  -0.88026   2.90043
N     0.53653  -0.72113   4.03713
C     1.05257  -2.33152   1.22757
N     1.77907  -3.22525   1.09853
C    -1.38341  -1.73024   1.43209
C    -2.03471  -1.82785   0.05472
C    -1.37819  -2.75335  -0.98545
C    -0.56960  -2.06612  -2.09696
C     0.72679  -1.40302  -1.62207
Br    1.88281  -1.02919  -3.21912
H     0.41727   3.90463   1.86262
H     2.20613   3.80417   2.05090
H     1.14453   3.33547   3.39286
H    -2.26871   1.60098  -0.38417
H    -4.53927   1.81869   0.54739
H    -4.87766   1.97266   3.01768
H    -2.89690   1.92478   4.53709
H    -0.62683   1.69585   3.61378
H    -0.33880   2.87854  -0.46694
H     1.45410   1.42720  -1.97695
H    -1.39727  -2.70421   1.94320
H    -1.96691  -1.03162   2.04615
H    -3.05428  -2.19035   0.25888
H    -2.16310  -0.82055  -0.36808
H    -2.17474  -3.31118  -1.50106
H    -0.75703  -3.51778  -0.49032
H    -1.19906  -1.32559  -2.61279
H    -0.29433  -2.82934  -2.83906
H     1.33133  -2.13396  -1.08057
