24
Generated by autodE on: 2022-07-27. E = -610.161428 Ha
C     2.09583   0.68347   1.98697
C     1.91272   0.08506   0.61197
O     2.91446  -0.25729  -0.03949
C     0.57545  -0.05143   0.05980
N     0.41785  -0.48098  -1.21421
C     1.28611  -0.84945  -2.16203
C     0.80667  -1.24912  -3.42060
N     0.44306  -1.58802  -4.47968
C    -0.67090   0.30209   0.77315
C    -1.66190   1.07454   0.13488
C    -2.85613   1.38628   0.78769
C    -3.07980   0.94369   2.09464
C    -2.10352   0.17679   2.73942
C    -0.91403  -0.14655   2.08566
H     3.10643   1.11126   2.04061
H     1.34746   1.45095   2.22429
H     2.02286  -0.10595   2.75293
H    -0.56483  -0.53068  -1.50268
H     2.34837  -0.83588  -1.93873
H    -1.48857   1.45272  -0.87591
H    -3.60889   1.99044   0.27589
H    -4.01075   1.19376   2.60863
H    -2.27414  -0.18458   3.75628
H    -0.17674  -0.77311   2.58872
