46
Generated by autodE on: 2022-06-04. E = -3680.432619 Ha. Imaginary frequency = -164.5 cm-1
C     1.11939   2.65371   2.61727
C     0.88980   2.28579   1.17437
O     1.81094   2.38542   0.35979
C    -0.46333   1.87202   0.74295
C    -1.68557   2.06647   1.56607
C    -2.77836   2.77476   1.02420
C    -3.95475   2.94843   1.75515
C    -4.06302   2.43015   3.04817
C    -2.98121   1.73938   3.60210
C    -1.80555   1.56008   2.87203
N    -0.70238   1.64982  -0.56322
C     0.14695   1.36638  -1.56759
C    -0.43902   1.12220  -2.83399
N    -0.95182   0.93388  -3.86454
C     0.90968  -0.72308  -0.53507
C     0.64225  -0.61502   0.66797
C     0.25969  -1.53793   1.77021
C     0.45887  -1.01324   3.13558
N     0.62476  -0.63158   4.21677
C     1.14400  -2.72509   1.66446
N     1.83502  -3.64873   1.54483
C    -1.24815  -1.97104   1.56460
C    -1.72837  -2.06824   0.10883
C    -0.97656  -2.99741  -0.88108
C    -0.21748  -2.31721  -2.04300
C     1.11093  -1.68317  -1.61782
Br    2.13171  -0.96868  -3.18059
H     0.33304   3.31855   3.00154
H     2.09813   3.14473   2.69294
H     1.12867   1.75253   3.24794
H    -2.70555   3.21649   0.02776
H    -4.78501   3.50368   1.31287
H    -4.98215   2.56769   3.62211
H    -3.05154   1.32645   4.61098
H    -0.98712   1.00595   3.32021
H    -1.68478   1.46023  -0.77576
H     1.18607   1.66401  -1.48300
H    -1.37987  -2.92482   2.09685
H    -1.86072  -1.21837   2.07996
H    -2.77010  -2.41667   0.18950
H    -1.79432  -1.05487  -0.31333
H    -1.71923  -3.65625  -1.35563
H    -0.29320  -3.67511  -0.34513
H    -0.85731  -1.55697  -2.51469
H     0.00764  -3.07337  -2.81042
H     1.79054  -2.46141  -1.24012
