51
Generated by autodE on: 2022-06-05. E = -1374.957068 Ha
C     1.60604  -3.59859   0.57627
N     0.89018  -2.33968   0.66153
C     1.53170  -1.17824   0.82356
O     2.76890  -1.11924   0.90681
C     0.74015   0.11198   1.01158
C     0.60105   0.34792   2.57453
C    -0.10759  -0.85362   3.17254
C    -1.39178  -0.71671   2.82536
C    -1.44675   0.56364   2.00469
O    -0.41830   1.34984   2.61447
C    -0.78889   0.28380   0.58707
C    -1.50513  -0.75517  -0.26719
C    -0.97681  -1.10176  -1.52287
C    -1.63799  -2.00753  -2.35376
C    -2.85002  -2.57685  -1.95218
C    -3.39667  -2.22198  -0.71689
C    -2.73403  -1.31480   0.11534
C    -0.70423   1.58104  -0.19678
C    -1.95306   2.21243  -0.74629
O    -3.06656   1.92066  -0.35673
O    -1.70538   3.11734  -1.68573
C    -2.84514   3.78965  -2.24632
N     0.43771   2.12197  -0.35838
C     1.48073   1.33015   0.30511
C     2.26051   2.24929   1.24468
C     2.37857   0.82043  -0.84377
O     1.95409   0.15922  -1.77044
O     3.64120   1.21557  -0.75383
C     4.54066   0.73609  -1.76518
H     0.88310  -4.40246   0.39208
H     2.14914  -3.81308   1.51050
H     2.33739  -3.57936  -0.24646
H    -0.12105  -2.34388   0.59240
H     1.51997   0.67354   3.06612
H     0.37849  -1.66920   3.70612
H    -2.22423  -1.39051   3.01765
H    -2.39389   1.10719   1.95610
H    -0.02803  -0.66736  -1.83761
H    -1.20200  -2.26864  -3.32095
H    -3.36873  -3.28667  -2.60075
H    -4.35088  -2.64595  -0.39575
H    -3.20501  -1.03921   1.05701
H    -2.44622   4.48469  -2.99352
H    -3.52074   3.06331  -2.72032
H    -3.38756   4.33825  -1.46303
H     1.58598   2.69393   1.98557
H     2.72235   3.06104   0.66888
H     3.05147   1.68966   1.75940
H     4.20978   1.06151  -2.76145
H     5.51914   1.16822  -1.52706
H     4.58829  -0.36194  -1.73192
