30
Generated by autodE on: 2022-06-05. E = -746.809225 Ha
C    -2.64618  -2.54931   1.12444
N    -1.74007  -1.46315   0.80984
C    -2.07759  -0.48906  -0.05984
O    -3.21408  -0.41980  -0.55611
C    -1.06052   0.53934  -0.36964
C     0.29093   0.57958  -0.33985
C     1.32335  -0.41777  -0.06784
C     2.50860  -0.02815   0.58859
C     3.50535  -0.96317   0.87102
C     3.34797  -2.29797   0.48479
C     2.18696  -2.69164  -0.19046
C     1.18395  -1.76307  -0.46648
C     0.62473   2.07640  -0.63938
C     0.16241   2.89835   0.58005
C    -1.17262   2.84636   0.53574
C    -1.49240   1.98833  -0.70618
O    -0.41681   2.37829  -1.57915
H    -2.16495  -3.21143   1.85457
H    -2.90052  -3.13632   0.22653
H    -3.58584  -2.16994   1.55564
H    -0.79350  -1.49471   1.17211
H     2.64137   1.01171   0.89515
H     4.41183  -0.64656   1.39207
H     4.13188  -3.02780   0.69961
H     2.06585  -3.72857  -0.51239
H     0.29298  -2.07303  -1.01434
H     1.62277   2.27524  -1.04326
H     0.82279   3.34375   1.32321
H    -1.91083   3.23960   1.23386
H    -2.47713   2.10141  -1.16963
