21
Generated by autodE on: 2022-06-05. E = -628.048843 Ha
C     3.94830   1.05899   0.18733
O     2.57276   0.77541   0.50510
C     2.22397  -0.50992   0.54131
O     2.96363  -1.45275   0.34100
C     0.83266  -0.66959   0.96003
N    -0.19474  -0.82641   0.34316
C    -1.34503  -0.96618  -0.21398
C    -1.88027  -2.30827  -0.61064
C    -2.15735   0.23925  -0.46911
O    -3.25571   0.19428  -0.99682
O    -1.56656   1.37007  -0.06397
C    -2.29434   2.58709  -0.27565
H     4.04413   2.14969   0.22829
H     4.19245   0.69271  -0.81992
H     4.61457   0.58856   0.92436
H    -1.17162  -3.10262  -0.34327
H    -2.06341  -2.34350  -1.69663
H    -2.84160  -2.49959  -0.10717
H    -1.65569   3.39114   0.10789
H    -3.24825   2.56663   0.27143
H    -2.49139   2.73713  -1.34722
