51
Generated by autodE on: 2022-06-05. E = -1374.864608 Ha. Imaginary frequency = -285.2 cm-1
C     2.45539  -3.06389  -0.18431
N     1.47510  -2.02830   0.06530
C     1.56560  -1.20094   1.12879
O     2.51095  -1.29991   1.93829
C     0.52017  -0.19288   1.36993
C     0.49730   0.40855   2.79929
C    -0.33028  -0.57168   3.65189
C    -1.58912  -0.41518   3.22670
C    -1.50006   0.65889   2.12662
O    -0.44307   1.48084   2.63345
C    -0.77750   0.01044   0.89615
C    -1.55438  -0.66121  -0.16387
C    -1.03220  -0.88278  -1.45504
C    -1.81342  -1.46455  -2.45319
C    -3.14086  -1.82176  -2.19467
C    -3.67813  -1.58917  -0.92565
C    -2.89661  -1.01201   0.07808
C    -0.57151   1.96587  -0.23409
C    -1.84568   2.50879  -0.69299
O    -2.52619   3.24150  -0.00175
O    -2.19775   1.98146  -1.85812
C    -3.55973   2.17731  -2.28269
N     0.61367   2.18480  -0.22099
C     1.81555   1.76442   0.10853
C     2.57437   2.39362   1.23315
C     2.47797   0.92906  -0.91368
O     1.97311   0.59663  -1.97450
O     3.70229   0.55679  -0.52696
C     4.44979  -0.25262  -1.44609
H     2.36382  -3.40002  -1.22528
H     2.31527  -3.93592   0.47832
H     3.47128  -2.67910  -0.02090
H     0.67112  -1.96181  -0.54692
H     1.45091   0.75088   3.20682
H     0.07989  -1.27556   4.37534
H    -2.49423  -0.95064   3.51107
H    -2.40245   1.23687   1.90392
H    -0.02711  -0.53433  -1.69787
H    -1.38735  -1.61834  -3.44733
H    -3.75532  -2.26743  -2.98012
H    -4.71640  -1.85418  -0.71275
H    -3.34125  -0.83615   1.05847
H    -3.74847   3.24061  -2.48563
H    -3.67030   1.58563  -3.19779
H    -4.24809   1.81484  -1.50643
H     1.88644   2.88966   1.92875
H     3.30228   3.13340   0.85930
H     3.13504   1.61504   1.76909
H     4.71068   0.33419  -2.33919
H     5.35788  -0.55409  -0.91198
H     3.87151  -1.13571  -1.74624
