61
Generated by autodE on: 2022-06-10. E = -1544.990351 Ha
C     4.10468   4.16959   5.84990
N     2.71312   3.92189   5.53730
C     2.03454   2.85272   5.96543
O     2.47479   2.01504   6.75716
C     0.59669   2.71557   5.39450
C    -0.46915   2.73678   6.49402
C    -0.17562   3.03693   7.82919
C    -1.19924   3.09836   8.77888
C    -2.52497   2.86503   8.40517
C    -2.82594   2.58186   7.06905
C    -1.80486   2.52319   6.12020
O     0.33929   3.84039   4.54407
C     0.15763   3.45230   3.18889
C    -1.16452   3.99399   2.78408
N    -2.21626   4.40545   2.52390
C     1.29729   4.01923   2.33770
C     2.51825   3.33083   2.28737
C     3.60084   3.87968   1.59776
C     3.47104   5.11432   0.95418
C     2.25331   5.79955   1.00211
C     1.16849   5.25380   1.69160
C     0.13801   1.92071   3.22630
C     0.46682   1.49307   4.45798
C     0.74843   0.07669   4.96392
C     2.24297  -0.27711   4.71625
C     0.47419  -0.04569   6.41156
N     0.23513  -0.30738   7.51620
C    -0.11261  -1.05107   4.31893
C    -1.62155  -0.80207   4.18086
C    -2.06891  -0.64709   2.72697
C    -1.79307   0.68098   2.03251
C    -0.29551   1.19400   1.94014
C     0.64393   0.13941   1.51298
N     1.38195  -0.66168   1.11782
C    -0.29026   2.11725   0.77700
N    -0.34742   2.76321  -0.18283
H     4.73468   4.02094   4.95770
H     4.42718   3.47510   6.63463
H     4.24094   5.20168   6.20500
H     2.24537   4.52161   4.86505
H     0.85340   3.20326   8.14560
H    -0.95507   3.32862   9.81844
H    -3.32213   2.90802   9.15096
H    -3.85957   2.40625   6.76255
H    -2.05350   2.31282   5.07921
H     2.62885   2.36799   2.78812
H     4.54787   3.33708   1.56136
H     4.31818   5.54113   0.41258
H     2.14475   6.76294   0.49927
H     0.21882   5.79166   1.72088
H     2.43402  -1.29931   5.07346
H     2.91377   0.41192   5.23674
H     2.44356  -0.23922   3.63788
H     0.07095  -1.94503   4.93096
H     0.32600  -1.29179   3.34506
H    -2.15749  -1.66435   4.60354
H    -1.93895   0.06838   4.77601
H    -1.63861  -1.46838   2.12923
H    -3.16206  -0.77380   2.67083
H    -2.34789   1.49763   2.51564
H    -2.15881   0.60667   0.99916
