26
Generated by autodE on: 2022-06-10. E = -628.303445 Ha
C    -1.59744  -3.05980   0.01148
C    -0.51523  -2.07622  -0.47548
C     0.72112  -2.82196  -0.78282
N     1.67983  -3.41833  -1.04955
C    -0.19680  -1.02081   0.49160
C     0.05936   0.06926   0.94783
C     0.26908   1.52191   0.88120
C    -0.97128   2.22401   1.27944
N    -1.95495   2.77248   1.55089
C     1.37143   1.98055   1.75051
N     2.25969   2.33811   2.40249
C     0.61255   1.85732  -0.62453
C    -0.36643   1.27602  -1.65949
C    -0.09559  -0.14304  -2.23313
C    -0.98454  -1.30906  -1.76145
H    -1.83255  -3.77662  -0.78792
H    -2.50521  -2.49547   0.26635
H    -1.25515  -3.60981   0.89901
H     0.64318   2.95407  -0.69809
H     1.63146   1.48124  -0.79725
H    -0.32824   1.97738  -2.50624
H    -1.39938   1.34132  -1.27788
H     0.96860  -0.40576  -2.10485
H    -0.24714  -0.07680  -3.32079
H    -2.00262  -0.94767  -1.54969
H    -1.06817  -2.06224  -2.55986
