61
Generated by autodE on: 2022-06-10. E = -1544.861036 Ha. Imaginary frequency = -169.6 cm-1
C     3.95324   4.84641   5.19206
N     2.52939   4.59601   5.31923
C     2.05516   3.36211   5.55537
O     2.78626   2.39855   5.79942
C     0.54642   3.26961   5.57353
C    -0.16479   3.05526   6.82622
C     0.51527   2.61694   7.98346
C    -0.17961   2.42058   9.17543
C    -1.55342   2.67168   9.24396
C    -2.23306   3.12106   8.10439
C    -1.55288   3.30677   6.90669
O    -0.16490   3.81497   4.62250
C    -0.03315   3.99733   3.30296
C    -1.26986   4.45859   2.77383
N    -2.29803   4.80458   2.34204
C     1.21761   4.24047   2.55496
C     2.30461   3.34496   2.55108
C     3.43491   3.60638   1.77980
C     3.50318   4.75876   0.98951
C     2.42724   5.65086   0.97796
C     1.29517   5.39470   1.75169
C    -0.11608   1.46220   3.05739
C    -0.02009   0.97968   4.18382
C    -0.07389  -0.15022   5.14056
C     1.22063  -0.35235   5.95088
C    -1.20705   0.01020   6.07329
N    -2.11022   0.03357   6.80054
C    -0.34504  -1.43535   4.28824
C    -1.59758  -1.42060   3.39542
C    -1.38521  -1.19317   1.88713
C    -1.43748   0.22578   1.31930
C    -0.20299   1.16448   1.60093
C     1.05238   0.47962   1.21664
N     2.02665  -0.08114   0.93453
C    -0.34569   2.32803   0.69962
N    -0.49747   3.17277  -0.07755
H     4.09851   5.86759   4.82073
H     4.40847   4.13813   4.48386
H     4.46404   4.74097   6.16206
H     1.88171   5.34431   5.09105
H     1.58782   2.42792   7.94573
H     0.35925   2.07368  10.05987
H    -2.09348   2.51884  10.18095
H    -3.30624   3.31897   8.15071
H    -2.08999   3.64350   6.01952
H     2.26749   2.43209   3.14213
H     4.26366   2.89531   1.78837
H     4.38872   4.95693   0.38168
H     2.46758   6.55360   0.36439
H     0.45973   6.09739   1.73576
H     1.12357  -1.25856   6.56535
H     1.42702   0.50579   6.59553
H     2.06090  -0.47909   5.25473
H    -0.40297  -2.26801   5.00550
H     0.56027  -1.59630   3.68298
H    -2.06921  -2.40940   3.49660
H    -2.34063  -0.70336   3.78336
H    -0.45393  -1.68866   1.56449
H    -2.19465  -1.72241   1.36017
H    -2.31697   0.77141   1.69184
H    -1.52459   0.16084   0.22474
