40
Generated by autodE on: 2022-06-18. E = -861.208665 Ha
C     5.74088  -0.77635   0.45138
C     4.73785   0.08709   0.19400
C     4.98339   1.42055  -0.46044
C     3.36290  -0.27410   0.55609
C     2.27295   0.48564   0.34606
C     0.89276   0.03501   0.69252
N     0.11464   1.10039   1.37769
N    -1.08632   1.05551   1.09413
C    -1.40986  -0.06439   0.15895
C    -1.89390  -1.24381   1.05371
C    -2.93495  -2.18403   0.52848
O    -1.40409  -1.37404   2.15872
C    -2.49263   0.34767  -0.84180
O    -2.74094  -0.36328  -1.82073
N    -3.12505   1.49612  -0.55947
C    -4.18866   2.05154  -1.37042
C    -0.01910  -0.39766  -0.49511
C     0.19772  -1.86201  -0.86768
C     0.22589   0.49223  -1.72318
H     6.77731  -0.54043   0.19408
H     5.54753  -1.74283   0.92675
H     4.64026   2.24701   0.18395
H     6.05115   1.56855  -0.67469
H     4.42332   1.50653  -1.40649
H     3.23376  -1.25353   1.03173
H     2.36264   1.46820  -0.12452
H     0.95577  -0.78921   1.41956
H    -3.89755  -1.64997   0.46132
H    -2.69167  -2.52534  -0.48589
H    -3.03383  -3.03188   1.21804
H    -2.83321   1.98313   0.28398
H    -5.14553   2.04842  -0.82462
H    -4.29839   1.44814  -2.27895
H    -3.95556   3.08846  -1.65572
H     0.05134  -2.53829  -0.01247
H    -0.48373  -2.16283  -1.67628
H     1.23052  -1.99697  -1.22444
H    -0.44897   0.21376  -2.54164
H     1.25859   0.36186  -2.07651
H     0.07355   1.55797  -1.49665
