17
Generated by autodE on: 2022-06-18. E = -509.672726 Ha
C     2.94920   0.98123  -1.01472
N     1.56845   0.87756  -0.59022
C     1.03328  -0.30005  -0.23506
O     1.65533  -1.37010  -0.22753
C    -0.40469  -0.25016   0.16622
N    -0.89439  -1.42205   0.52774
N    -1.29406  -2.42992   0.83270
C    -1.29820   0.91107   0.19270
C    -2.72655   0.69589   0.61759
O    -0.88094   2.02508  -0.12950
H     3.13143   0.41816  -1.94479
H     3.18556   2.03749  -1.19205
H     3.63353   0.58984  -0.24559
H     0.95314   1.69171  -0.56821
H    -3.22628  -0.01728  -0.05786
H    -2.77128   0.27635   1.63542
H    -3.25661   1.65593   0.59359
