40
Generated by autodE on: 2022-06-18. E = -861.151566 Ha. Imaginary frequency = -454.1 cm-1
C     2.99824   3.47293  -0.42211
C     3.34372   2.18599  -0.20643
C     4.78411   1.74742  -0.18041
C     2.29339   1.18699   0.00429
C     2.49610  -0.12968   0.22411
C     1.44836  -1.15174   0.42687
N     0.54295  -0.32729   1.99867
N    -0.57619  -0.14628   1.72275
C    -1.37265  -0.44725   0.63833
C    -2.28444  -1.58604   0.80157
C    -2.20782  -2.38969   2.07062
O    -3.06427  -1.89571  -0.10475
C    -1.68047   0.75206  -0.19511
O    -1.07023   1.81932  -0.02427
N    -2.60413   0.57994  -1.15328
C    -2.85458   1.59682  -2.15274
C     0.45025  -1.46725  -0.53516
C    -0.00435  -2.90261  -0.61391
C     0.33252  -0.71786  -1.83622
H     1.94773   3.77897  -0.44139
H     3.75233   4.24809  -0.58521
H     4.98104   0.98615  -0.95356
H     5.46242   2.59571  -0.34921
H     5.04066   1.28541   0.78756
H     1.26816   1.56835  -0.01494
H     3.52161  -0.50774   0.29806
H     1.78929  -2.01551   1.00675
H    -2.85928  -3.26790   1.98136
H    -1.17589  -2.71088   2.27593
H    -2.53394  -1.77191   2.92307
H    -3.02686  -0.34691  -1.21878
H    -3.68104   1.26698  -2.79428
H    -1.96539   1.77004  -2.78222
H    -3.12939   2.55453  -1.68493
H     0.01324  -3.40120   0.36508
H    -1.00879  -2.99809  -1.04885
H     0.68563  -3.45097  -1.28153
H    -0.65447  -0.87490  -2.29208
H     1.08363  -1.12013  -2.54084
H     0.50860   0.35778  -1.74003
