35
Generated by autodE on: 2022-06-17. E = -911.950846 Ha. Imaginary frequency = -328.7 cm-1
C     2.06782  -3.21184   1.41920
N     1.26167  -2.00524   1.41748
C     1.62074  -0.93098   0.69963
O     2.67216  -0.88634   0.04262
C     0.67369   0.23001   0.70262
C     1.01972   1.62654   0.25070
O     0.17770   2.52674   0.34416
N     2.24295   1.77013  -0.27774
C     2.62085   2.96153  -1.00872
N    -0.49367   0.10947   1.27169
C    -1.68022  -0.11049   1.09035
C    -2.80328  -0.13001   1.92608
N    -3.81861  -0.18229   2.49684
C    -1.96108  -0.51328  -1.05712
C    -2.72590   0.75914  -1.35632
C    -2.80587  -1.75573  -0.88567
C    -0.63711  -0.68385  -1.47662
C     0.14107   0.29364  -2.19486
O     1.22683   0.05848  -2.73458
H     3.09726  -2.99437   1.74192
H     1.62030  -3.93148   2.11453
H     2.11232  -3.66349   0.41541
H     0.38918  -1.99893   1.93534
H     2.77209   0.90196  -0.40320
H     3.71559   3.04067  -1.03478
H     2.24657   2.92542  -2.04649
H     2.20783   3.85309  -0.51967
H    -3.06092   0.74716  -2.40761
H    -3.62591   0.82776  -0.72785
H    -2.12105   1.66069  -1.19571
H    -3.22371  -2.03316  -1.86941
H    -3.65794  -1.58934  -0.21053
H    -2.21120  -2.60405  -0.51725
H    -0.19528  -1.68345  -1.41830
H    -0.29304   1.31473  -2.26564
