48
Generated by autodE on: 2022-06-01. E = -1185.545245 Ha
C    -3.28179   1.30815   0.00933
C    -1.76671   1.19664   0.12024
N    -1.06051   2.01559  -0.86439
C    -1.33798   3.43952  -0.78335
C     0.34377   1.61666  -0.82493
C     1.13233   2.08465  -2.05479
C     0.98267   2.27905   0.35365
N     1.37848   2.93857   1.22421
C     0.31830   0.02756  -0.64327
C     1.58056  -0.38305   0.12518
C     2.72158  -0.79092  -0.59113
C     3.92600  -1.08395   0.05410
C     4.02675  -0.97556   1.44227
C     2.91064  -0.55599   2.16934
C     1.71194  -0.25775   1.51832
C     0.21768  -0.70716  -2.02190
C     0.15456  -2.23929  -1.78118
C    -1.31623  -2.47032  -1.34024
C    -1.86000  -1.03087  -1.23270
C    -1.21624  -0.42339  -2.48566
C    -1.16971  -0.23394  -0.06682
C    -1.34749  -1.01810   1.24153
F    -2.59929  -1.52878   1.31849
F    -1.20401  -0.27627   2.36355
F    -0.50725  -2.06155   1.37554
H    -3.61837   2.30559   0.32544
H    -3.76699   0.57471   0.66806
H    -3.62933   1.13815  -1.01974
H    -1.48491   1.53657   1.13631
H    -2.38965   3.62953  -1.03659
H    -1.14508   3.86288   0.22416
H    -0.72176   3.98543  -1.51007
H     0.61754   1.78048  -2.97379
H     1.23499   3.17814  -2.05766
H     2.14197   1.65151  -2.04199
H     2.68330  -0.88569  -1.67497
H     4.78831  -1.39945  -0.53815
H     4.96527  -1.20825   1.95095
H     2.96950  -0.44971   3.25523
H     0.88214   0.10130   2.11889
H     1.00523  -0.41539  -2.72181
H     0.87319  -2.58053  -1.02632
H     0.38577  -2.76921  -2.71657
H    -1.88662  -2.98829  -2.12526
H    -1.41134  -3.07081  -0.42962
H    -2.95183  -0.98340  -1.17161
H    -1.43840   0.63385  -2.63960
H    -1.47614  -0.99317  -3.39046
