18
Generated by autodE on: 2022-06-01. E = -344.264722 Ha
C    -2.83336  -0.15668  -0.96816
C    -1.36764  -0.41166  -1.01047
N    -0.52717   0.02969  -0.09013
C    -1.08850   0.81125   1.02751
C     0.83955  -0.20629  -0.11864
C     1.40402  -1.00738  -1.24697
C     1.66097   0.29304   0.88799
N     2.41057   0.68910   1.70803
H    -3.07714   0.92086  -1.00404
H    -3.31098  -0.63811  -1.83183
H    -3.30672  -0.55549  -0.05283
H    -0.94147  -0.98675  -1.82970
H    -1.80410   0.19251   1.58359
H    -0.28698   1.13155   1.69767
H    -1.60741   1.69381   0.63353
H     1.20910  -0.53531  -2.22993
H     2.49096  -1.11206  -1.13112
H     0.96574  -2.02375  -1.29337
