18
Generated by autodE on: 2022-07-26. E = -344.258065 Ha
C    -2.71315  -0.46626   0.80280
C    -1.22904  -0.34865   0.74768
N    -0.53342   0.06990  -0.29267
C    -1.23878   0.46667  -1.52398
C     0.85854   0.17993  -0.34392
C     1.56157   0.69086  -1.57177
C     1.57884  -0.18890   0.78661
N     2.18691  -0.50385   1.74718
H    -3.11541  -1.17521   0.05695
H    -3.22593   0.49902   0.64224
H    -3.00156  -0.83319   1.79722
H    -0.63979  -0.62264   1.62482
H    -1.03534   1.52348  -1.73637
H    -0.87797  -0.14140  -2.36210
H    -2.31430   0.32133  -1.41058
H     1.27573   1.72302  -1.84331
H     2.64338   0.69773  -1.37711
H     1.39876   0.06242  -2.46584
