30
Generated by autodE on: 2022-06-01. E = -841.225434 Ha
F    -0.33458   2.62982  -0.86652
C    -0.76963   1.81413   0.12834
F    -1.89566   2.38166   0.61213
F     0.15205   1.89882   1.11091
C    -1.02969   0.42383  -0.33578
C    -0.18102  -0.63468  -0.38168
C     1.25884  -0.72363  -0.11138
C     1.79219  -1.89184   0.46926
C     3.15868  -1.99780   0.73392
C     4.02291  -0.94866   0.40571
C     3.50945   0.20725  -0.19288
C     2.14333   0.32022  -0.44994
C    -1.05545  -1.85387  -0.66597
C    -1.88843  -2.10351   0.63484
C    -2.85337  -0.88495   0.67180
C    -2.43934  -0.08405  -0.60481
C    -2.12813  -1.23377  -1.58124
H     1.12803  -2.71770   0.73005
H     3.55095  -2.90676   1.19612
H     5.09335  -1.03450   0.60667
H     4.17970   1.02475  -0.46908
H     1.76111   1.21566  -0.94143
H    -0.51670  -2.73339  -1.03777
H    -1.24451  -2.17136   1.52265
H    -2.44006  -3.05081   0.54468
H    -2.74901  -0.27590   1.58050
H    -3.90453  -1.20055   0.59436
H    -3.16330   0.67556  -0.92263
H    -2.98650  -1.90046  -1.75520
H    -1.72433  -0.88413  -2.54268
