13
Generated by autodE on: 2022-05-25. E = -470.017428 Ha
C    -3.49041   0.41100  -0.03949
C    -2.33490   0.55651   0.89384
O    -2.37565   0.91602   2.05707
C    -1.02543   0.22483   0.34280
N     0.05400  -0.01881  -0.03286
C     1.28422  -0.29593  -0.45708
C     2.37239  -0.17203   0.44154
N     3.27736  -0.07496   1.17033
C     1.48324  -0.70742  -1.79798
N     1.66291  -1.04690  -2.89887
H    -3.33006   1.03352  -0.93495
H    -4.41046   0.71223   0.47830
H    -3.56494  -0.63697  -0.37414
