29
Generated by autodE on: 2022-06-16. E = -670.850372 Ha
C     4.17068   0.26077  -0.66661
O     3.07805  -0.20334   0.14145
C     1.89501   0.38755  -0.04771
O     1.71602   1.30088  -0.82692
C     0.81926  -0.28006   0.78757
N    -0.30665   0.63225   0.98878
C    -1.29679   0.21343   0.29357
C    -2.61386   0.93920   0.29188
C    -2.72268   2.21853   1.06634
O    -3.54761   0.46507  -0.33851
C    -1.07336  -1.03868  -0.52452
C    -1.00293  -0.73539  -2.02761
C     0.25778  -1.55470   0.07797
C     0.05333  -2.69270   1.07283
H     5.03717  -0.34677  -0.38133
H     3.94382   0.12342  -1.73381
H     4.36992   1.32378  -0.46873
H     1.27249  -0.53090   1.75745
H    -2.00189   2.95320   0.67385
H    -2.45997   2.04856   2.12160
H    -3.74330   2.61415   0.98799
H    -1.89385  -1.75110  -0.34429
H    -0.20135  -0.01239  -2.24146
H    -0.79470  -1.65856  -2.58982
H    -1.95288  -0.31802  -2.39196
H     0.93837  -1.88753  -0.71930
H    -0.61908  -2.38300   1.88974
H     1.01108  -3.00372   1.51901
H    -0.39448  -3.56818   0.57698
