17
Generated by autodE on: 2022-06-16. E = -513.451056 Ha
C     2.79499   1.43515  -0.73079
O     1.68680   0.64115  -0.29225
C     1.98474  -0.50625   0.34953
O     3.12884  -0.88774   0.55195
C     0.80333  -1.23863   0.77469
N    -0.38992  -0.77160   0.53544
C    -1.44885  -0.26359   0.29819
C    -2.69551   0.19845  -0.22305
C    -2.60368   1.45482  -1.04703
O    -3.74351  -0.39580   0.02042
H     3.44498   1.69897   0.11634
H     2.36270   2.34167  -1.17050
H     3.38481   0.89482  -1.48637
H     0.90816  -2.18635   1.30354
H    -1.56630   1.78798  -1.19078
H    -3.17781   2.24835  -0.54169
H    -3.07426   1.26518  -2.02461
