29
Generated by autodE on: 2022-06-16. E = -670.741830 Ha. Imaginary frequency = -428.2 cm-1
C     4.09000  -0.54005  -0.02088
O     2.91424  -0.71318   0.77689
C     1.86214   0.07263   0.47171
O     1.89402   0.93022  -0.39964
C     0.70256  -0.26980   1.28702
N    -0.39504   0.45214   1.13391
C    -1.29550   0.61715   0.33398
C    -2.33878   1.61363   0.07551
C    -3.49715   1.59351   1.03028
O    -2.26461   2.33802  -0.90781
C    -1.00984  -1.05115  -1.15320
C    -0.64355  -0.26606  -2.38940
C    -0.10353  -1.85897  -0.49540
C    -0.52239  -2.94000   0.46103
H     4.82975  -1.24819   0.37106
H     3.87876  -0.76289  -1.07755
H     4.47110   0.48842   0.06306
H     0.82773  -0.86508   2.19238
H    -4.21546   2.37584   0.75100
H    -3.13910   1.74640   2.06099
H    -3.98385   0.60492   0.99600
H    -2.07385  -1.27913  -1.02145
H    -0.88644  -0.84561  -3.29812
H    -1.19196   0.68484  -2.45741
H     0.43237  -0.04034  -2.40933
H     0.92246  -1.89852  -0.87400
H    -1.40746  -2.63827   1.04416
H    -0.79081  -3.86527  -0.08291
H     0.28116  -3.20257   1.16500
