46
Generated by autodE on: 2022-06-19. E = -906.591494 Ha
C     1.71737   2.51983   0.16457
C     0.52583   1.81409  -0.42145
O    -0.20547   2.39512  -1.20741
C     0.19662   0.35850   0.02296
C     1.49687  -0.38548   0.34168
C     2.45948  -0.52037  -0.67175
C     3.66162  -1.18622  -0.43023
C     3.91901  -1.73200   0.83328
C     2.96166  -1.61004   1.84315
C     1.75677  -0.94064   1.59797
C    -0.61282  -0.42089  -1.08081
C    -0.83652   0.33323  -2.37981
O    -0.02029   0.29706  -3.28546
C    -1.88088  -0.95962  -0.35327
C    -3.08790  -1.15718  -1.27726
C    -1.51479  -2.33729   0.22969
C    -2.11626   0.09550   0.77892
C    -2.89542   1.33034   0.28478
C    -2.87936  -0.48167   1.97834
N    -0.72449   0.41472   1.16569
C    -0.51338   1.42060   2.18807
H     2.54842   2.41510  -0.55340
H     2.05306   2.09492   1.11693
H     1.48947   3.58999   0.26646
H     2.25172  -0.11340  -1.66520
H     4.39830  -1.28488  -1.23126
H     4.85927  -2.25429   1.02559
H     3.14947  -2.03962   2.83033
H     1.00627  -0.85701   2.38354
H     0.00160  -1.27252  -1.39671
H    -1.80732   0.84530  -2.53102
H    -3.44121  -0.23186  -1.74785
H    -3.92957  -1.58385  -0.70936
H    -2.83665  -1.86774  -2.08099
H    -0.67840  -2.27354   0.93885
H    -1.21471  -3.01253  -0.58652
H    -2.37119  -2.79808   0.74251
H    -2.88128   2.11245   1.05874
H    -2.47212   1.76031  -0.63093
H    -3.94899   1.07837   0.09660
H    -3.81793  -0.94417   1.63693
H    -2.29276  -1.23813   2.51603
H    -3.15002   0.31147   2.69132
H     0.52171   1.38225   2.55550
H    -0.71741   2.46159   1.86483
H    -1.16542   1.21031   3.04741
