32
Generated by autodE on: 2022-06-19. E = -635.879777 Ha
C     0.60195   2.84042  -0.51769
C    -0.45576   1.89096   0.02544
O    -1.57671   2.39744   0.32593
C    -0.17261   0.51042   0.14326
C     1.09028  -0.19566  -0.07794
C     1.06688  -1.54453  -0.51306
C     2.24133  -2.26515  -0.72890
C     3.48984  -1.66725  -0.52491
C     3.53707  -0.34082  -0.08126
C     2.36392   0.37808   0.15229
N    -1.25864  -0.32201   0.57962
C    -1.08326  -1.03374   1.85659
C    -2.41143  -0.36323  -0.04248
C    -3.58365  -1.03509   0.59276
C    -2.57689   0.23855  -1.38631
H     1.16974   3.30681   0.30477
H     0.07630   3.64719  -1.05005
H     1.31960   2.36352  -1.19826
H     0.10461  -2.02866  -0.69516
H     2.17985  -3.30243  -1.06896
H     4.41081  -2.22863  -0.69837
H     4.50205   0.13747   0.10721
H     2.43882   1.39032   0.54741
H    -1.46451  -2.06067   1.79373
H    -0.01715  -1.05549   2.09988
H    -1.61901  -0.49388   2.65185
H    -3.44903  -2.13076   0.57110
H    -3.69980  -0.74191   1.64666
H    -4.50353  -0.79410   0.04645
H    -3.33351  -0.31887  -1.95576
H    -2.92377   1.28056  -1.26966
H    -1.62066   0.27630  -1.92702
