20
Generated by autodE on: 2022-06-21. E = -457.715324 Ha
C    -3.11733  -0.26630  -0.56298
N    -1.81366   0.21332  -0.13420
C    -1.73277   1.33689   0.69798
C    -0.56900   1.79553   1.18507
C     0.76188   1.15150   0.88397
C     0.57123  -0.07883   0.01165
C     1.71534  -0.90930  -0.39822
N     2.93381  -0.49939   0.03604
O     1.60558  -1.93600  -1.09925
C    -0.66338  -0.45583  -0.42630
H    -3.68118   0.53646  -1.06327
H    -2.98553  -1.09320  -1.27187
H    -3.71416  -0.62765   0.29140
H    -2.68935   1.81330   0.92021
H    -0.58647   2.68022   1.82571
H     1.43666   1.88410   0.39447
H     1.27981   0.88982   1.82911
H     3.75036  -1.03920  -0.22881
H     3.06430   0.33576   0.59244
H    -0.77272  -1.34145  -1.05408
