22
Generated by autodE on: 2022-07-27. E = -679.393274 Ha
C    -2.27214   2.95482   2.06231
N    -1.40763   2.32645   1.08275
C    -1.20435   1.00903   1.07299
O    -1.73214   0.21386   1.86848
C    -0.26494   0.45642   0.03301
N    -0.04686  -0.82906   0.25764
C     0.82930  -1.74892  -0.20858
C     0.66006  -3.09411   0.20378
N     0.53172  -4.20552   0.53147
C     1.97301  -1.41228  -0.96587
N     2.94876  -1.15345  -1.54959
C     0.18037   1.22635  -1.15103
C     0.31263   0.53641  -2.48182
O     0.30150   2.44703  -1.06685
H    -2.31534   4.03045   1.85543
H    -3.29000   2.53904   2.01203
H    -1.89238   2.80239   3.08540
H    -0.87313   2.88383   0.41660
H    -0.67345  -1.14796   1.02790
H    -0.07606  -0.49021  -2.49235
H    -0.24162   1.14630  -3.21114
H     1.36801   0.52183  -2.79481
