42
Generated by autodE on: 2022-06-21. E = -1137.104714 Ha. Imaginary frequency = -287.3 cm-1
C    -3.67199   2.54076   1.84551
N    -2.67958   1.94715   0.97167
C    -2.56932   0.62532   0.83607
O    -3.30081  -0.18296   1.42863
C    -1.44099   0.08066  -0.04462
C    -0.95861   0.94602  -1.17034
C    -0.59421   0.35160  -2.50165
O    -0.90853   2.16710  -1.02411
N    -1.64836  -1.26974  -0.20897
C    -0.66605  -2.24502  -0.32952
C    -0.92390  -3.49732   0.28242
N    -1.12211  -4.51652   0.81846
C     0.38738  -2.22399  -1.26467
N     1.33100  -2.22948  -1.95360
C     0.86169  -1.04846   1.34543
C     0.14405   0.17288   1.40496
C     0.94629   1.42946   1.16363
C     1.97033   1.17456   0.07872
C     2.44532   2.21317  -0.86161
N     2.10145   3.48844  -0.57902
O     3.13357   1.93427  -1.85972
C     2.52400  -0.05802  -0.01784
N     2.09142  -1.11480   0.76171
C     2.85767  -2.35476   0.84013
H    -3.57474   2.15180   2.87083
H    -3.52346   3.62711   1.86124
H    -4.69508   2.32627   1.49702
H    -2.05482   2.52056   0.40356
H    -1.09732  -0.60099  -2.70302
H     0.49392   0.19589  -2.54030
H    -0.85508   1.08740  -3.27473
H    -2.40448  -1.55380   0.42790
H     0.57306  -1.90424   1.95173
H    -0.58641   0.20729   2.21424
H     0.28056   2.26190   0.90476
H     1.44625   1.72409   2.10875
H     1.53700   3.73667   0.22366
H     2.38741   4.22324  -1.21752
H     3.33189  -0.27634  -0.71508
H     3.59880  -2.37759   0.03287
H     2.18564  -3.21769   0.73642
H     3.37726  -2.42517   1.80882
