30
Generated by autodE on: 2022-05-28. E = -903.633866 Ha
C     4.53000  -0.50806   0.97530
N     3.27156   0.10999   0.60252
C     2.29107  -0.58278   0.00391
O     2.36619  -1.78893  -0.25259
C     1.05868   0.20413  -0.39742
N     0.92898   1.54536   0.18137
N    -0.43858   1.85526  -0.15944
C    -0.89266   3.13184   0.35236
C    -1.23994   0.70609   0.12459
F    -1.78015   0.73557   1.41194
C    -2.32276   0.35865  -0.93164
C    -3.07882  -0.85429  -0.40361
C    -2.23923  -1.88912  -0.53537
C    -0.97060  -1.31137  -1.15056
O    -1.48143  -0.22615  -1.94248
C    -0.26036  -0.49802  -0.04041
F    -0.14079  -1.20018   1.14298
H     5.12534  -0.78358   0.08924
H     5.10740   0.19885   1.58327
H     4.35167  -1.42095   1.56218
H     3.16365   1.11485   0.70072
H     1.09309   0.31166  -1.49239
H     0.97869   1.44240   1.20741
H    -0.84388   3.19143   1.45603
H    -1.93559   3.29070   0.04286
H    -0.27526   3.93596  -0.07133
H    -2.89461   1.20777  -1.32014
H    -4.06522  -0.82807   0.05800
H    -2.36714  -2.92051  -0.20876
H    -0.31922  -1.97123  -1.73252
