17
Generated by autodE on: 2022-05-28. E = -397.480637 Ha
C     3.23177  -0.38372   0.11407
N     2.54897   0.88391   0.09503
N     1.26976   0.75580   0.04757
C     0.46163  -0.30651   0.01240
C    -0.96278  -0.00250  -0.03418
O    -1.37665   1.17677  -0.03782
N    -1.79081  -1.07422  -0.07079
C    -3.23245  -0.97314  -0.12082
H     4.31328  -0.20540   0.15614
H     2.94247  -1.00148   0.98801
H     3.01026  -0.99183  -0.78598
H     0.74080   1.64152   0.03355
H     0.86267  -1.31554   0.01957
H    -1.37123  -1.99819  -0.06798
H    -3.69898  -1.47910   0.73990
H    -3.51218   0.08656  -0.09811
H    -3.63580  -1.42343  -1.04261
