43
Generated by autodE on: 2022-06-11. E = -6494.845939 Ha
C    -2.62447   3.36279   1.92461
O    -1.79898   2.21873   1.65248
C    -2.40169   1.03936   1.62773
O    -3.57831   0.86079   1.84844
C    -1.39432  -0.08830   1.30630
C    -2.09570  -1.47149   1.38816
O    -2.14854  -2.27444   0.48452
O    -2.54210  -1.70093   2.61829
C    -3.14545  -2.98217   2.86888
N    -0.33124  -0.00835   2.32666
N     0.85997  -0.46078   1.68213
C     0.71139  -0.21724   0.32683
C    -0.59053   0.04789  -0.00006
C    -1.16798   0.22819  -1.40699
C    -0.51773   1.39612  -2.03933
N    -0.07910   2.35213  -2.52709
C    -2.66922   0.65943  -1.44468
F    -2.86326   1.86312  -0.87964
F    -3.08042   0.75784  -2.71521
F    -3.47098  -0.21068  -0.82798
C    -1.09664  -1.07040  -2.30793
C     0.03373  -2.06418  -2.06227
C     1.42061  -1.65642  -2.54824
C     1.98632  -0.35183  -1.98473
C     1.99797  -0.21153  -0.47054
Br    3.20803  -1.63572   0.24104
Br    2.86226   1.55910  -0.04922
H    -3.06343   3.28394   2.92934
H    -3.42638   3.44015   1.17715
H    -1.96065   4.23243   1.86500
H    -3.44070  -2.97400   3.92384
H    -4.02583  -3.11636   2.22485
H    -2.42079  -3.78635   2.67858
H    -0.54697  -0.64917   3.09163
H     1.68443  -0.03109   2.10453
H    -2.03677  -1.60407  -2.12337
H    -1.10305  -0.74903  -3.35912
H     0.05661  -2.34899  -1.00051
H    -0.25015  -2.98230  -2.60088
H     1.40248  -1.53685  -3.64370
H     2.12183  -2.47744  -2.33495
H     1.45769   0.50934  -2.40333
H     3.02619  -0.23996  -2.32113
