19
Generated by autodE on: 2022-07-27. E = -605.996743 Ha
C    -1.96426   2.65929  -0.36525
O    -1.33118   1.38534  -0.17943
C     0.00039   1.37296  -0.20772
O     0.67308   2.38600  -0.37978
C     0.62039   0.05938  -0.01630
N     1.98514   0.14505  -0.04800
N     2.91165  -0.70485   0.06780
C     0.01137  -1.24381   0.18803
O     0.67290  -2.27145   0.33982
O    -1.32417  -1.25020   0.19779
C    -1.95750  -2.52099   0.39691
H    -1.70241   3.08245  -1.34583
H    -3.04203   2.46680  -0.31161
H    -1.66363   3.36002   0.42697
H     2.28194   1.12600  -0.20032
H     2.45234  -1.61968   0.21311
H    -3.03539  -2.32252   0.37649
H    -1.68543  -3.22071  -0.40662
H    -1.66955  -2.95104   1.36725
