19
Generated by autodE on: 2022-06-11. E = -605.996753 Ha
C     2.14269   2.39070  -0.18405
O     0.99714   1.52873  -0.15168
C     1.23221   0.23439   0.08029
O     2.36914  -0.20311   0.26042
C     0.05252  -0.61323   0.10265
N     0.21420  -1.95186   0.33247
N     1.22293  -2.68051   0.54640
C    -1.35921  -0.27204  -0.08848
O    -2.24230  -1.12455  -0.04492
O    -1.60871   1.01745  -0.30860
C    -2.98391   1.38207  -0.49452
H     2.67299   2.36900   0.77903
H     2.83224   2.08994  -0.98618
H     1.75276   3.39657  -0.37834
H    -0.70284  -2.43394   0.32200
H     2.04575  -2.05465   0.52399
H    -2.98474   2.46531  -0.66197
H    -3.40766   0.86281  -1.36620
H    -3.57363   1.13542   0.40019
