24
Generated by autodE on: 2022-06-11. E = -5888.779372 Ha
N    -2.06087  -3.97917  -0.67103
C    -1.57065  -2.99435  -1.03416
C    -0.97899  -1.72557  -1.49413
C    -0.11777  -2.04575  -2.74732
F    -0.86658  -2.60287  -3.70495
F     0.44345  -0.94189  -3.24665
F     0.86360  -2.90353  -2.44087
C    -0.15888  -1.10872  -0.45314
C     0.26049  -0.23578   0.27230
C     0.34079   1.06693   0.87564
Br   -0.55862   0.98801   2.65595
Br    2.22563   1.61781   1.15820
C    -0.37628   2.07753  -0.03912
C    -1.74534   1.61754  -0.58224
C    -1.75689   0.78626  -1.89610
C    -2.13851  -0.70532  -1.82020
H    -0.47739   3.01864   0.52022
H     0.30143   2.27516  -0.88464
H    -2.30956   1.09728   0.20892
H    -2.30513   2.54383  -0.77809
H    -0.80503   0.91287  -2.43175
H    -2.52026   1.23142  -2.55156
H    -2.90312  -0.84919  -1.04356
H    -2.58314  -1.03424  -2.77055
