43
Generated by autodE on: 2022-06-11. E = -6494.770731 Ha. Imaginary frequency = -356.2 cm-1
C    -3.49585   3.95481   1.96838
O    -2.83006   2.69390   2.14148
C    -1.55812   2.64092   1.78774
O    -0.91397   3.60663   1.41060
C    -0.92449   1.29533   1.89944
C    -1.56456   0.04382   2.36491
O    -0.92829  -0.90018   2.81460
O    -2.88496   0.03161   2.23729
C    -3.56755  -1.15206   2.68016
N     0.42176   1.38865   1.93539
N     1.25730   0.41547   1.72992
C     0.71104  -0.09007  -0.14870
C    -0.48893   0.20612  -0.34788
C    -1.62523   0.20591  -1.29831
C    -2.72182   1.09867  -0.86967
N    -3.58587   1.82414  -0.60929
C    -2.23693  -1.22285  -1.37811
F    -3.19081  -1.27979  -2.31530
F    -2.79779  -1.57321  -0.21013
F    -1.31520  -2.14484  -1.66871
C    -1.19703   0.73330  -2.71412
C    -0.20781  -0.07092  -3.56363
C     1.28052  -0.07547  -3.18293
C     1.75902  -1.13566  -2.17246
C     1.92858  -0.65175  -0.73178
Br    2.49786  -2.22395   0.36821
Br    3.39457   0.70135  -0.67377
H    -3.03387   4.72061   2.60730
H    -4.53627   3.78457   2.26649
H    -3.44645   4.26731   0.91654
H    -4.61589  -1.01391   2.39338
H    -3.15040  -2.04459   2.19667
H    -3.48031  -1.25057   3.77176
H     0.76850   2.33028   1.71358
H     0.80291  -0.44069   2.07201
H    -2.12820   0.84633  -3.28810
H    -0.80340   1.74606  -2.54223
H    -0.56436  -1.10203  -3.70861
H    -0.27554   0.40052  -4.55700
H     1.83990  -0.26405  -4.11143
H     1.58673   0.93090  -2.85568
H     2.72877  -1.54356  -2.48828
H     1.05481  -1.97988  -2.14583
