36
Generated by autodE on: 2022-06-17. E = -709.459342 Ha
C     3.94185  -1.48007   0.48164
C     3.95215  -0.36872  -0.53015
C     5.26727  -0.16442  -1.22844
C     2.88293   0.40970  -0.82348
C     1.56011   0.32517  -0.22747
C     0.52996   1.11876  -0.57779
C    -0.85436   1.11795   0.01307
C    -0.94726   2.21060   1.09393
C    -1.95389   1.30561  -1.05343
C    -3.24392   0.76414  -0.41841
C    -4.14194   0.02761  -1.40155
N    -2.77814  -0.10939   0.69359
C    -1.33177  -0.26753   0.60548
C    -0.96044  -1.38355  -0.30595
N    -0.78251  -2.27468  -1.02753
C    -0.75998  -0.55867   1.93469
N    -0.32814  -0.78383   2.98673
H     4.21990  -2.43443   0.00072
H     2.97296  -1.61855   0.97850
H     4.70374  -1.29608   1.25942
H     5.57589  -1.08408  -1.75711
H     6.06800   0.05144  -0.49860
H     5.22815   0.65921  -1.95637
H     3.01036   1.18713  -1.58605
H     1.41716  -0.43226   0.54836
H     0.68962   1.89282  -1.33768
H    -1.95473   2.27388   1.52869
H    -0.22329   2.02850   1.90102
H    -0.70653   3.18102   0.63598
H    -2.03871   2.35901  -1.35308
H    -1.69703   0.71842  -1.94866
H    -3.81474   1.59685   0.02387
H    -4.47038   0.70871  -2.20243
H    -5.04235  -0.36195  -0.90010
H    -3.60617  -0.81740  -1.86344
H    -3.24971  -1.01219   0.71268
