27
Generated by autodE on: 2022-05-26. E = -3243.064827 Ha. Imaginary frequency = -273.2 cm-1
C     3.62943   1.64562  -1.12352
O     2.43127   0.85644  -1.11476
C     2.07760   0.31682   0.06404
O     2.75772   0.40499   1.07475
C     0.81052  -0.35941  -0.00865
C    -0.17272  -1.11176  -0.03685
Br   -0.89206  -2.78825  -0.16697
C    -2.17498   0.34452   0.18713
C    -2.87083   0.06523  -1.11208
C    -2.77462  -0.16554   1.46383
N    -1.35575   1.36203   0.24587
C    -0.24419   1.83530   0.24048
C     0.49771   3.08064   0.28366
C     1.02312   3.46638   1.63637
O     0.77534   3.66617  -0.76025
H     3.53217   2.50094  -0.43961
H     4.49904   1.03896  -0.83239
H     3.74519   2.00149  -2.15384
H    -3.84357   0.58732  -1.14252
H    -3.07828  -1.01152  -1.19723
H    -2.26631   0.39056  -1.96980
H    -2.97566  -1.24325   1.37357
H    -2.10935   0.01205   2.31990
H    -3.74256   0.33068   1.65507
H     1.43122   4.48540   1.59409
H     1.82510   2.76042   1.91236
H     0.23745   3.39118   2.40401
