23
Generated by autodE on: 2022-06-19. E = -351.521384 Ha
C     3.68770  -0.18480  -0.81559
C     2.58523   0.02238  -0.06232
C     2.69050   0.44984   1.37934
C     1.25781  -0.16925  -0.64315
C     0.07828   0.00503   0.00433
C    -1.21275  -0.19991  -0.62017
C    -2.43217  -0.05062  -0.04368
C    -2.65143   0.36345   1.38380
C    -3.68902  -0.30241  -0.82774
H     4.69276  -0.04936  -0.40642
H     3.60794  -0.49533  -1.86199
H     3.74016   0.55697   1.68721
H     2.18022   1.41292   1.54679
H     2.20654  -0.28227   2.04701
H     1.23570  -0.48108  -1.69434
H     0.09209   0.31560   1.05254
H    -1.18591  -0.50897  -1.67213
H    -3.22283  -0.41297   1.92278
H    -1.72232   0.55011   1.93754
H    -3.26680   1.27952   1.42554
H    -4.32602   0.60020  -0.84694
H    -3.47911  -0.60230  -1.86495
H    -4.29592  -1.09322  -0.35112
