17
Generated by autodE on: 2022-06-19. E = -604.742820 Ha
C     4.35284   0.05574  -0.71499
O     2.91374   0.08792  -0.61188
C     2.39941  -0.28166   0.54882
O     3.00340  -0.64352   1.53341
C     0.94840  -0.20514   0.52426
N    -0.20984  -0.20314   0.65261
N    -1.44985  -0.22353   0.85924
C    -2.20567   0.17391  -0.24395
O    -1.77384   0.52099  -1.32814
O    -3.49947   0.11391   0.07844
C    -4.42499   0.48971  -0.94931
H     4.79738   0.73492   0.02555
H     4.58208   0.38960  -1.73238
H     4.71817  -0.96752  -0.55149
H    -5.42322   0.38164  -0.50938
H    -4.32253  -0.17150  -1.82227
H    -4.25812   1.53205  -1.25807
