40
Generated by autodE on: 2022-06-19. E = -956.262797 Ha. Imaginary frequency = -379.8 cm-1
C     0.75932   0.22126   5.47413
O     0.44331   0.20174   4.06804
C    -0.68837  -0.39018   3.72355
O    -1.48520  -0.90227   4.47671
C    -0.90024  -0.32864   2.26169
N    -1.23127  -1.06997   1.38264
N    -1.59103  -1.28334   0.17748
C    -0.61210  -1.53375  -0.74862
O    -0.84960  -1.59518  -1.94775
O     0.61671  -1.70323  -0.22347
C     1.66491  -2.04577  -1.13714
C    -0.74316   1.71771   0.17388
C    -2.09748   1.94154  -0.44734
C     0.41031   1.50418  -0.66803
C     0.37607   1.35805  -2.02204
C     1.55033   1.13024  -2.82857
C     1.56629   0.76416  -4.13765
C     0.33261   0.50583  -4.95225
C     2.86433   0.55300  -4.86025
C    -0.58338   1.75017   1.54518
H     1.71227   0.75456   5.55636
H    -0.02883   0.74953   6.02847
H     0.85777  -0.80568   5.85254
H     1.77784  -1.27755  -1.91355
H     2.57916  -2.11003  -0.53489
H     1.45855  -3.01752  -1.61033
H    -2.12327   2.91712  -0.96335
H    -2.33677   1.17591  -1.19900
H    -2.88751   1.93704   0.31629
H     1.37712   1.43032  -0.15780
H    -0.59003   1.39814  -2.52957
H     2.51396   1.23785  -2.31757
H    -0.60037   0.60963  -4.38459
H     0.36678  -0.51775  -5.36483
H     0.29357   1.18569  -5.82154
H     2.93891  -0.48489  -5.23136
H     3.73482   0.75956  -4.22090
H     2.92239   1.20095  -5.75315
H     0.42198   1.76613   1.97283
H    -1.39982   2.09631   2.18447
