44
Generated by autodE on: 2022-06-01. E = -1141.106199 Ha
C     4.25664  -1.30948   1.32589
O     3.25125  -0.98854   0.35140
C     2.30302  -0.14366   0.73206
O     2.26846   0.36475   1.83408
C     1.24197   0.17443  -0.35669
C     1.92823   0.75728  -1.62652
C     1.27448   1.92131  -2.31564
O     2.94392   0.24783  -2.05702
N     0.17897   1.00254   0.15520
C     0.44206   2.31285   0.72252
C    -0.84763   0.21611   0.83005
C    -2.25756   0.70587   0.55443
C    -2.57674   1.43126  -0.60044
C    -3.89114   1.84223  -0.84238
C    -4.90408   1.53403   0.07051
C    -4.59128   0.82297   1.23415
C    -3.27605   0.41935   1.47550
C    -0.54467  -1.25001   0.42441
C    -1.71230  -2.18404   0.22796
F     0.24080  -1.79677   1.46475
C     0.42606  -1.11416  -0.77259
C    -0.27036  -1.00905  -2.11644
F     1.23934  -2.23236  -0.83144
H     3.79648  -1.77661   2.20846
H     4.79884  -0.40335   1.63185
H     4.93782  -2.01323   0.83414
H     0.18115   1.84548  -2.30909
H     1.53615   2.84735  -1.77868
H     1.66205   1.98875  -3.34044
H    -0.29790   3.04980   0.36654
H     0.40312   2.29754   1.82625
H     1.43877   2.67116   0.43720
H    -0.70524   0.23617   1.92744
H    -1.78402   1.68564  -1.30420
H    -4.12310   2.40928  -1.74724
H    -5.93129   1.85525  -0.11797
H    -5.37362   0.58898   1.96025
H    -3.03278  -0.12403   2.39224
H    -2.40632  -1.80705  -0.53281
H    -2.26124  -2.28910   1.17413
H    -1.34132  -3.17289  -0.07917
H     0.46989  -0.88449  -2.91863
H    -0.98317  -0.17793  -2.14701
H    -0.81493  -1.94387  -2.30411
