12
Generated by autodE on: 2022-06-01. E = -355.865945 Ha
C    -1.55387  -1.30575  -0.19511
C    -0.66199  -0.12568  -0.06850
F    -1.33203   1.05703  -0.09352
C     0.66952  -0.08009   0.06243
C     1.64738  -1.19581   0.11766
F     1.24977   1.14541   0.16152
H    -2.29280  -1.31189   0.62398
H    -2.11415  -1.25905  -1.14426
H    -0.99151  -2.24676  -0.16621
H     2.38246  -1.09635  -0.69885
H     1.15712  -2.17285   0.02998
H     2.20539  -1.16550   1.06882
