32
Generated by autodE on: 2022-07-26. E = -785.191538 Ha
C     4.01161  -1.37992   1.48382
O     3.35819  -0.90641   0.30648
C     2.08356  -0.47041   0.46228
O     1.54431  -0.49331   1.57358
C     1.45913  -0.00505  -0.75269
C     2.01283  -0.00651  -2.07340
C     1.10115   0.39613  -3.22719
O     3.18613  -0.33124  -2.34882
N     0.13272   0.52532  -0.55827
C    -0.07939   1.95398  -0.83310
C    -0.76668  -0.23797   0.00184
C    -2.09393   0.05520   0.50247
C    -2.83097   1.25199   0.33334
C    -4.10399   1.37204   0.88463
C    -4.66884   0.31960   1.61345
C    -3.95756  -0.87269   1.78410
C    -2.68962  -1.00579   1.22878
H     4.09624  -0.58505   2.24058
H     5.01309  -1.69666   1.16600
H     3.47300  -2.23337   1.92340
H     0.03976   0.16870  -3.05735
H     1.19126   1.47835  -3.41733
H     1.44734  -0.12755  -4.12936
H    -0.86189   2.09283  -1.58949
H    -0.36371   2.46743   0.09651
H     0.86024   2.37824  -1.19523
H    -0.44776  -1.27383   0.12767
H    -2.43611   2.08546  -0.23843
H    -4.66320   2.29875   0.74112
H    -5.66728   0.42776   2.04312
H    -4.39488  -1.69939   2.34733
H    -2.13473  -1.93736   1.35883
