32
Generated by autodE on: 2022-06-01. E = -785.199623 Ha
C     2.78989   2.34451   1.89311
O     1.86441   1.29922   1.60109
C     2.13217   0.53937   0.49427
O     3.10104   0.79872  -0.22146
C     1.16202  -0.49625   0.30025
C     1.09245  -1.39868  -0.80912
C     2.15122  -1.32568  -1.89007
O     0.17059  -2.23483  -0.92328
N     0.16829  -0.68947   1.31686
C     0.64614  -1.27691   2.57872
C    -1.11410  -0.60922   1.10462
C    -1.84629  -0.04113  -0.01093
C    -1.29074   0.71625  -1.06697
C    -2.11773   1.25619  -2.04640
C    -3.50153   1.03868  -2.00962
C    -4.06454   0.29080  -0.97169
C    -3.24537  -0.23483   0.02468
H     2.83013   3.07941   1.07470
H     2.42406   2.82829   2.80757
H     3.80177   1.94563   2.06281
H     3.16515  -1.43193  -1.47987
H     1.95375  -2.12446  -2.61785
H     2.11711  -0.34998  -2.39932
H     0.98818  -2.30254   2.37685
H    -0.15939  -1.28463   3.32306
H     1.48748  -0.68122   2.94944
H    -1.73689  -1.00526   1.91198
H    -0.21798   0.89049  -1.11051
H    -1.67998   1.84775  -2.85315
H    -4.13990   1.45641  -2.79155
H    -5.14273   0.12282  -0.93536
H    -3.68370  -0.80637   0.84576
