30
Generated by autodE on: 2022-06-04. E = -854.418214 Ha
C    -1.69281   3.48773   0.79113
N    -1.62316   2.04803   0.64709
C    -0.59136   1.47220   0.00594
O     0.36392   2.12773  -0.42472
C    -0.68483  -0.01335  -0.21751
C    -1.95804  -0.73897  -0.01908
O    -3.05776  -0.20847   0.04972
O    -1.77643  -2.04758   0.16806
C    -2.95477  -2.84666   0.35254
N     0.38436  -0.66301  -0.71116
C     0.23173  -1.77441  -1.67746
C     1.65877  -0.30660  -0.36780
C     2.72164  -0.66382  -1.23107
N     3.62995  -0.92492  -1.91614
C     1.97586   0.19236   0.98064
C     3.43801   0.32098   1.32150
O     1.09954   0.44785   1.80266
H    -2.51264   3.73635   1.47615
H    -1.87287   3.99038  -0.17443
H    -0.74978   3.87534   1.20236
H    -2.46235   1.49196   0.79344
H    -3.61026  -2.77120  -0.52685
H    -3.50135  -2.51882   1.24806
H    -2.60016  -3.87588   0.47704
H    -0.79665  -1.81366  -2.04107
H     0.89545  -1.56677  -2.52665
H     0.52182  -2.72154  -1.20720
H     3.90840   1.05917   0.65133
H     3.53583   0.65478   2.36180
H     3.97037  -0.63235   1.18351
