30
Generated by autodE on: 2022-07-27. E = -854.413695 Ha
C    -2.46546  -3.02196   2.15278
N    -1.49662  -2.03458   1.71545
C    -1.54106  -1.52185   0.47779
O    -2.36896  -1.85974  -0.37167
C    -0.51936  -0.44659   0.18650
C    -0.38809   0.68097   1.17682
O    -0.68869   1.82185   0.90661
O     0.02138   0.25994   2.36518
C     0.13004   1.24877   3.40955
N     0.09513  -0.37017  -0.97611
C    -0.19883  -1.36511  -2.04438
C     1.12334   0.54518  -1.23540
C     1.92566   0.97194  -0.15969
N     2.61619   1.31691   0.71886
C     1.33423   1.10684  -2.56056
C     2.51250   2.04365  -2.70763
O     0.59071   0.86726  -3.51767
H    -2.23558  -3.30712   3.18580
H    -3.48901  -2.61720   2.11001
H    -2.42766  -3.91870   1.51550
H    -0.80882  -1.67580   2.37187
H    -0.84732   1.71758   3.58788
H     0.86688   2.00913   3.11751
H     0.46663   0.70489   4.29838
H    -1.12207  -1.08845  -2.56197
H    -0.31787  -2.34849  -1.58089
H     0.64187  -1.38032  -2.73755
H     2.37154   2.94256  -2.08623
H     2.59816   2.34331  -3.75990
H     3.44736   1.56287  -2.38017
