47
Generated by autodE on: 2022-06-04. E = -3800.114296 Ha. Imaginary frequency = -255.6 cm-1
C    -3.50821  -2.54734   2.07199
N    -2.80406  -1.35484   1.64137
C    -2.55774  -1.13642   0.32972
O    -3.00111  -1.87312  -0.55433
C    -1.63489   0.02065   0.05412
C    -1.75903   1.15922   1.06607
O    -2.49882   2.08812   0.81625
O    -1.10696   1.01155   2.20296
C    -1.24723   2.06462   3.17298
N    -1.41161   0.44383  -1.23025
C    -2.29166   0.04258  -2.35387
C    -0.31380   1.24767  -1.48817
C     0.04472   2.28360  -0.58944
N     0.37272   3.16175   0.10488
C     0.39693   1.22406  -2.77957
C     1.53393   2.20331  -2.93897
O     0.13138   0.40919  -3.66083
C     1.30014  -0.40166  -0.17412
Br    2.47886   0.71285   0.78175
C     1.80163  -1.28497  -1.30114
C     2.61167  -2.42314  -0.59930
C     1.51553  -3.20737   0.17769
C     0.19820  -2.46556  -0.21518
C     0.51516  -2.05734  -1.66144
C     0.29132  -1.12128   0.49086
F     0.22413  -1.14279   1.83524
H    -2.90241  -3.45686   1.91938
H    -3.74227  -2.45328   3.13953
H    -4.44447  -2.66216   1.50865
H    -2.25912  -0.85083   2.33513
H    -2.30279   2.18958   3.45111
H    -0.85476   3.00240   2.75560
H    -0.65337   1.75088   4.03824
H    -2.17047   0.77546  -3.15428
H    -3.32312   0.06860  -1.99043
H    -2.07203  -0.96040  -2.73263
H     1.15901   3.23868  -2.91568
H     2.26253   2.10435  -2.11931
H     2.03231   2.01240  -3.89731
H     2.33005  -0.77493  -2.11447
H     3.08694  -3.04812  -1.36942
H     3.40310  -2.02537   0.05004
H     1.67255  -3.20485   1.26516
H     1.45489  -4.25390  -0.15273
H    -0.72232  -3.03143  -0.03637
H    -0.24724  -1.44940  -2.14598
H     0.72911  -2.92745  -2.29793
