41
Generated by autodE on: 2022-05-30. E = -1474.238664 Ha
C     1.52809   2.37505  -1.71462
N     0.63842   1.29131  -1.34603
C    -0.72387   1.74236  -1.08499
C    -1.40948   0.62373  -0.25114
C    -2.26391   1.30184   0.81304
F    -2.86183   0.46847   1.68021
F    -3.25020   2.01241   0.22000
F    -1.55745   2.17346   1.56228
C    -2.18854  -0.36857  -1.17078
C    -2.86524  -1.51127  -0.38653
C    -1.65407  -2.33169   0.14445
C    -0.43087  -1.60435  -0.46288
C    -1.01946  -1.14371  -1.81288
C    -0.19485  -0.25647   0.25742
Cl   -0.05582  -0.51086   2.06329
C     1.06218   0.56751  -0.15554
C     2.32275  -0.24639  -0.33342
C     3.20049  -0.40763   0.74800
C     4.34736  -1.19723   0.62577
C     4.63654  -1.82998  -0.58696
C     3.77201  -1.66604  -1.67449
C     2.62286  -0.88146  -1.54786
H     2.52840   1.98600  -1.95361
H     1.63443   3.12809  -0.90299
H     1.14119   2.88962  -2.60732
H    -0.71486   2.69130  -0.51662
H    -1.26345   1.92758  -2.02587
H    -2.85870   0.16377  -1.85775
H    -3.54585  -1.17713   0.40263
H    -3.45871  -2.10527  -1.09720
H    -1.67741  -3.36636  -0.22664
H    -1.61230  -2.37219   1.23932
H     0.47704  -2.21694  -0.50174
H    -1.37281  -1.99387  -2.41450
H    -0.34252  -0.52692  -2.40931
H     1.23392   1.27978   0.67766
H     2.98002   0.09079   1.69442
H     5.02058  -1.31277   1.47875
H     5.53502  -2.44387  -0.68640
H     3.99357  -2.15247  -2.62768
H     1.95163  -0.75532  -2.39778
