41
Generated by autodE on: 2022-05-30. E = -1474.149637 Ha. Imaginary frequency = -144.3 cm-1
C     1.25575   2.04060  -2.36068
N     0.85933   1.87695  -0.95177
C    -0.23621   2.53630  -0.54464
C    -1.57389   0.33524   0.06116
C    -2.46564   1.10921   0.95909
F    -3.39832   0.32299   1.57458
F    -3.17838   2.04730   0.29484
F    -1.81942   1.74242   1.96152
C    -2.12100  -0.30631  -1.21679
C    -2.83706  -1.62975  -0.78992
C    -1.65892  -2.51786  -0.29038
C    -0.40991  -1.61274  -0.53881
C    -0.83402  -0.89019  -1.82809
C    -0.53068  -0.47485   0.45414
Cl   -0.01606  -0.73909   2.11179
C     1.49745   1.01910  -0.11294
C     2.54889   0.07401  -0.40554
C     3.32972  -0.36560   0.69723
C     4.31613  -1.33670   0.55450
C     4.57014  -1.91352  -0.69683
C     3.80405  -1.50684  -1.79410
C     2.80674  -0.54000  -1.65853
H     0.91784   3.02584  -2.69939
H     0.80463   1.27337  -3.00183
H     2.34666   1.98953  -2.44250
H    -0.39070   2.64430   0.52358
H    -0.69030   3.24435  -1.23539
H    -2.72185   0.35755  -1.85068
H    -3.60316  -1.45932  -0.02358
H    -3.32931  -2.07825  -1.66613
H    -1.74760  -2.79380   0.77015
H    -1.57441  -3.44618  -0.87481
H     0.55546  -2.13252  -0.53893
H    -1.03833  -1.58561  -2.65556
H    -0.12069  -0.13333  -2.15687
H     1.32533   1.24039   0.93736
H     3.14258   0.07362   1.67954
H     4.89695  -1.64535   1.42770
H     5.34653  -2.67319  -0.81192
H     3.97403  -1.95870  -2.77494
H     2.20945  -0.29135  -2.53240
