52
Generated by autodE on: 2022-06-20. E = -948.099459 Ha
C    -3.44760  -1.10893   1.22854
C    -2.88336  -1.33710   0.03334
C    -3.69437  -1.63629  -1.19566
C    -1.38091  -1.29605  -0.16713
C    -0.56657  -2.23954   0.72425
C    -0.68518  -3.70244   0.32504
N     0.78507  -1.69837   0.57980
C     1.81839  -2.36910   1.35038
C     0.69926  -0.22265   0.64424
C     0.74423   0.16103   2.15364
C     2.07057   0.43630   2.81770
O    -0.27596   0.15216   2.82651
C     1.79941   0.47004  -0.14065
C     2.60098  -0.21141  -1.06265
C     3.56191   0.47260  -1.81649
C     3.73080   1.85024  -1.66030
C     2.92788   2.54210  -0.74547
C     1.97116   1.85668   0.00341
C    -0.74379   0.09460   0.07544
C    -0.78957   0.95751  -1.14783
C    -1.15150   2.25143  -1.21328
C    -1.53691   3.08679  -0.02282
C    -1.13894   2.99310  -2.52314
H    -4.53389  -1.13872   1.35807
H    -2.84677  -0.87562   2.11218
H    -3.48669  -0.88912  -1.98189
H    -4.77550  -1.64019  -0.99224
H    -3.41120  -2.61626  -1.61825
H    -1.16399  -1.58796  -1.20716
H    -0.91663  -2.13897   1.77320
H    -0.30750  -3.86394  -0.69747
H    -1.74357  -4.00402   0.35492
H    -0.13472  -4.36491   1.00952
H     1.92355  -3.40651   1.00133
H     1.61288  -2.40657   2.44051
H     2.78791  -1.87662   1.19881
H     2.15193   1.52539   2.97005
H     2.93702   0.11654   2.22937
H     2.07621  -0.03913   3.80936
H     2.46548  -1.28467  -1.19430
H     4.18018  -0.07762  -2.53028
H     4.48111   2.38440  -2.24822
H     3.04455   3.62123  -0.61911
H     1.33903   2.41098   0.70106
H    -1.29281   0.57753   0.88679
H    -0.48246   0.46602  -2.07869
H    -0.83500   3.93271   0.08523
H    -1.53723   2.52755   0.92185
H    -2.53709   3.53245  -0.16378
H    -0.86521   2.34028  -3.36532
H    -0.41938   3.83089  -2.48724
H    -2.12531   3.44220  -2.73531
