23
Generated by autodE on: 2022-06-20. E = -351.521384 Ha
C    -3.76645  -0.17292   0.28345
C    -2.56745   0.26539  -0.15949
C    -2.46537   1.36994  -1.18009
C    -1.33679  -0.33396   0.35269
C    -0.07648   0.01451  -0.00944
C     1.11121  -0.61490   0.53099
C     2.40090  -0.32738   0.22174
C     2.82235   0.72530  -0.76372
C     3.53221  -1.07312   0.87127
H    -3.83726  -0.97496   1.02469
H    -4.70266   0.25749  -0.08282
H    -1.93327   1.02851  -2.08355
H    -3.46027   1.72819  -1.47993
H    -1.89392   2.22562  -0.78353
H    -1.46549  -1.13314   1.09263
H     0.06054   0.81052  -0.74649
H     0.93330  -1.40753   1.26784
H     1.98170   1.25388  -1.23112
H     3.43397   0.27482  -1.56536
H     3.46816   1.47350  -0.27091
H     4.15820  -1.57422   0.11108
H     3.17577  -1.83163   1.58361
H     4.20272  -0.37765   1.40753
