29
Generated by autodE on: 2022-06-20. E = -596.535367 Ha
C    -3.75532   1.31738  -0.19283
C    -2.54149   0.69270   0.38299
N    -1.46627   0.43476  -0.30301
C    -1.40291   0.82857  -1.72225
C    -0.42525  -0.39591   0.22349
C    -0.84213  -1.56703   0.90615
C     0.20196  -2.51700   1.47415
O    -2.05348  -1.88237   1.08876
C     0.94139   0.06452  -0.04462
C     1.22823   1.45148  -0.02571
C     2.50859   1.93761  -0.28990
C     3.55785   1.05637  -0.57335
C     3.29486  -0.31736  -0.60915
C     2.01005  -0.80514  -0.36460
H    -3.53765   2.33905  -0.55137
H    -4.12481   0.74887  -1.06306
H    -4.54796   1.37385   0.56327
H    -2.51094   0.42929   1.43924
H    -0.41372   0.58684  -2.11884
H    -2.16465   0.26937  -2.28503
H    -1.59313   1.90402  -1.83161
H    -0.23959  -3.01048   2.35227
H     0.45255  -3.30384   0.74338
H     1.13532  -2.01937   1.76826
H     0.42953   2.15832   0.21097
H     2.69066   3.01527  -0.26284
H     4.56288   1.43488  -0.77351
H     4.09614  -1.02039  -0.85194
H     1.82771  -1.87562  -0.45323
