52
Generated by autodE on: 2022-06-20. E = -948.042510 Ha. Imaginary frequency = -398.4 cm-1
C    -3.21554  -1.40208   1.96563
C    -3.01200  -1.68206   0.66643
C    -3.98801  -2.50718  -0.13279
C    -1.82267  -1.20371  -0.10363
C    -0.32910  -2.33090   0.76770
C    -0.55655  -3.74264   0.31788
N     0.84163  -1.69015   0.46674
C     1.69512  -2.28200  -0.56758
C     1.04953  -0.37736   0.88640
C     0.43554   0.11788   2.10060
C     0.45997   1.60956   2.39317
O    -0.13222  -0.60366   2.95736
C     2.09661   0.43811   0.22284
C     2.15088   0.62821  -1.17355
C     3.12897   1.43598  -1.75693
C     4.08256   2.07968  -0.96306
C     4.05998   1.88804   0.42254
C     3.08691   1.07348   1.00202
C    -1.45528   0.15980  -0.06342
C    -0.95774   0.83256  -1.23079
C    -0.78294   2.16781  -1.42975
C    -1.08262   3.22148  -0.40419
C    -0.25303   2.68406  -2.73616
H    -4.11670  -1.74815   2.48025
H    -2.49064  -0.82622   2.54740
H    -4.38020  -1.92934  -0.98770
H    -4.83689  -2.84502   0.47975
H    -3.49014  -3.39410  -0.56029
H    -1.73453  -1.65685  -1.09850
H    -0.69534  -2.09241   1.75959
H    -0.50186  -3.86600  -0.77376
H    -1.55218  -4.06423   0.65159
H     0.17834  -4.42779   0.77571
H     1.27030  -2.14561  -1.57392
H     1.80564  -3.35541  -0.37602
H     2.68829  -1.82648  -0.53679
H     0.76926   2.23769   1.55261
H     1.12770   1.80617   3.24763
H    -0.55483   1.89894   2.70679
H     1.42343   0.13953  -1.81503
H     3.14010   1.56624  -2.84169
H     4.84362   2.71644  -1.42041
H     4.81099   2.36673   1.05580
H     3.09779   0.91608   2.08185
H    -1.80044   0.76146   0.77922
H    -0.71410   0.17332  -2.07168
H    -0.15791   3.75118  -0.11387
H    -1.54708   2.82519   0.50725
H    -1.75330   3.98909  -0.82974
H    -0.03636   1.87277  -3.44658
H     0.67629   3.26120  -2.57817
H    -0.96936   3.38067  -3.20888
