33
Generated by autodE on: 2022-10-20. E = -1166.905800 Ha
C     2.91848   0.38881  -1.62210
O     1.55485   0.52018  -1.22513
C     1.15079  -0.05452  -0.04355
Cl    2.00142   0.88640   1.41166
C     1.53311  -1.51477   0.13254
C     0.94336  -2.43448  -0.96167
C    -0.06223  -3.47059  -0.44902
C    -1.45359  -2.95682  -0.07005
C    -1.50747  -1.88227   1.03736
C    -1.38734  -0.46696   0.55071
C    -2.50693   0.43531   0.41841
C    -3.92935   0.13788   0.74743
N    -2.14283   1.61456  -0.04754
N    -0.78819   1.51199  -0.24504
C    -0.10786   2.59220  -0.64802
N     0.41872   3.57048  -0.99326
C    -0.30137   0.25371   0.10722
H     3.14856  -0.63912  -1.94072
H     3.58988   0.68774  -0.80285
H     3.05184   1.07062  -2.47140
H     2.62947  -1.56379   0.12885
H     1.22617  -1.83175   1.13649
H     1.77689  -2.97002  -1.44072
H     0.48216  -1.82871  -1.75930
H     0.37927  -3.98843   0.42137
H    -0.19172  -4.24115  -1.22736
H    -2.04649  -3.82134   0.26989
H    -1.96540  -2.56751  -0.96680
H    -2.47660  -1.96193   1.54893
H    -0.74558  -2.09316   1.80321
H    -4.29512  -0.71880   0.15960
H    -4.56134   1.01007   0.53316
H    -4.03874  -0.12520   1.81160
