9
Generated by autodE on: 2022-10-20. E = -280.397693 Ha
C    -2.93194  -0.15698   0.46902
C    -1.55192  -0.07757   0.04185
N    -0.44540  -0.01890  -0.29507
N     0.72583   0.04633  -0.84000
C     1.76189   0.09081  -0.02091
N     2.76302   0.13578   0.59044
H    -2.99338  -0.73407   1.40469
H    -3.34344   0.85110   0.63137
H    -3.52084  -0.67221  -0.30604
