24
Generated by autodE on: 2022-10-20. E = -886.360746 Ha
C     1.09610  -2.95587   0.49617
O    -0.14833  -2.27775   0.36155
C    -0.10108  -0.98192  -0.08428
Cl    0.40620  -1.00477  -1.94332
C     0.84521  -0.08710   0.57171
C     1.16376   0.99227   1.02908
C     1.08740   2.37553   1.47024
C    -0.13364   3.00818   0.75417
C    -1.43075   2.17031   0.77386
C    -1.64447   1.11877  -0.35406
C    -1.50811  -0.37520  -0.00951
H     1.77290  -2.40945   1.17423
H     1.58168  -3.07123  -0.48596
H     0.87265  -3.94430   0.91714
H     0.94478   2.40339   2.56409
H     2.00575   2.94285   1.25093
H    -0.32275   3.98210   1.23339
H     0.14123   3.22119  -0.29233
H    -2.26174   2.88895   0.69971
H    -1.54643   1.69069   1.76167
H    -0.99694   1.34974  -1.21570
H    -2.67420   1.24352  -0.72210
H    -1.85070  -0.55772   1.02287
H    -2.14470  -0.98079  -0.67190
