29
Generated by autodE on: 2022-07-27. E = -837.091681 Ha
C     2.03012   0.97488   4.06946
N     1.97204   0.41446   2.73675
C     0.87797   0.49095   1.95585
O    -0.17006   1.05162   2.30721
C     0.95933  -0.13223   0.59743
O    -0.18618   0.05937  -0.03022
N    -0.52060  -0.32931  -1.22538
C    -1.81633   0.07344  -1.50426
C    -2.29040  -0.29513  -2.78224
C    -3.57892   0.05605  -3.17429
C    -4.40639   0.77464  -2.30339
C    -3.93694   1.14205  -1.03224
C    -2.65370   0.79993  -0.62411
C     2.05602  -0.84385  -0.05788
O     2.03900  -1.25360  -1.19062
O     3.12289  -1.00500   0.74671
C     4.26799  -1.65998   0.18241
H     2.92528   1.60555   4.18131
H     2.07018   0.18314   4.83597
H     1.13879   1.58744   4.24582
H     2.77838  -0.08435   2.37147
H    -1.62838  -0.85502  -3.44529
H    -3.94148  -0.23106  -4.16358
H    -5.41720   1.05028  -2.61154
H    -4.58485   1.70300  -0.35489
H    -2.28471   1.08314   0.36137
H     4.58890  -1.15071  -0.73705
H     5.05193  -1.60031   0.94584
H     4.03424  -2.71086  -0.04213
