52
Generated by autodE on: 2022-06-24. E = -1188.627925 Ha. Imaginary frequency = -235.1 cm-1
C    -4.91465  -0.10050  -0.12525
C    -3.73753  -0.08636   0.54285
C    -3.53309   0.74742   1.77963
C    -2.61711  -0.84368   0.01747
C    -1.36826  -0.91236   0.56944
C    -0.28215  -1.55954  -0.08737
N     0.25180   0.20852  -1.67236
C    -0.95828   0.71990  -2.06714
C    -1.59763   0.04362  -3.13423
C    -2.86799   0.42812  -3.54711
C    -3.52343   1.49973  -2.92143
C    -2.89274   2.18118  -1.87295
C    -1.63224   1.79415  -1.43165
O     0.72192   0.94196  -0.64041
C     1.77345   0.46685   0.04714
C     1.76642   1.11542   1.39929
O     0.72502   1.64386   1.82264
N     2.88936   1.07268   2.13832
C     2.88771   1.50909   3.51889
C     2.97631   0.08772  -0.71537
O     3.06927   0.08333  -1.92867
O     3.99914  -0.28103   0.08297
C     5.22007  -0.66569  -0.56487
C     0.99956  -1.74513   0.46573
C     1.21758  -1.74460   1.95743
C     1.94499  -2.62784  -0.30869
H    -5.04153  -0.70130  -1.02985
H    -5.77304   0.48410   0.21672
H    -3.23900   0.12203   2.63860
H    -2.71899   1.47576   1.62726
H    -4.44691   1.29572   2.04793
H    -2.80073  -1.39231  -0.91168
H    -1.16242  -0.37901   1.49951
H    -0.49799  -2.05446  -1.03593
H    -1.07766  -0.78941  -3.61143
H    -3.35555  -0.10767  -4.36470
H    -4.51828   1.80322  -3.25396
H    -3.40284   3.01101  -1.37858
H    -1.15115   2.31099  -0.60300
H     3.68869   0.57004   1.76408
H     3.90432   1.41606   3.92033
H     2.20597   0.89767   4.13424
H     2.56770   2.55868   3.60342
H     5.62041   0.16873  -1.15778
H     5.91501  -0.92839   0.24061
H     5.04831  -1.53250  -1.21827
H     0.58169  -1.02830   2.49136
H     0.98448  -2.75324   2.34413
H     2.26711  -1.53839   2.20612
H     2.98157  -2.52090   0.03577
H     1.90183  -2.42836  -1.38811
H     1.66082  -3.68346  -0.14853
