55
Generated by autodE on: 2022-12-30. E = -1282.230559 Ha
C    -0.73725   4.27363   1.98729
N    -0.45430   3.16721   1.09870
C    -1.34815   2.69195   0.21938
O    -2.45045   3.21056   0.00660
C    -0.93582   1.40685  -0.50021
N     0.49691   1.23790  -0.59596
C     1.14419   2.16696  -1.50606
C     0.81370  -0.19032  -0.79296
C     0.60126  -0.59927  -2.26442
C     2.25515  -0.45004  -0.33549
C     2.80020   0.29157   0.72691
C     4.10145   0.06002   1.17689
C     4.89480  -0.91819   0.56906
C     4.37121  -1.65396  -0.49627
C     3.06744  -1.41802  -0.94483
C    -0.27587  -0.91017   0.10821
O    -0.72582  -2.12832  -0.44213
C     0.11453  -3.27060  -0.34378
C     0.10113  -1.07928   1.63517
C    -1.03638  -1.86634   2.27326
C    -2.04800  -0.99721   2.37801
C    -1.51522   0.30532   1.80336
O    -0.12558   0.23817   2.14125
C    -1.46078   0.13507   0.23993
C    -2.86437  -0.18109  -0.27401
O    -3.83439   0.37015   0.26475
N    -2.99223  -0.98077  -1.34260
C    -4.29333  -1.30393  -1.89376
H     0.20566   4.68752   2.36786
H    -1.28010   5.06178   1.44685
H    -1.35566   3.96014   2.84652
H     0.37836   2.59704   1.23093
H    -1.42263   1.46405  -1.49391
H     0.72839   2.13530  -2.53226
H     1.03157   3.19552  -1.13424
H     2.22014   1.94947  -1.56130
H     0.69594  -1.67826  -2.42219
H    -0.40233  -0.30418  -2.60096
H     1.34056  -0.10146  -2.90587
H     2.19055   1.05951   1.20074
H     4.49860   0.65048   2.00638
H     5.91388  -1.10001   0.91877
H     4.98014  -2.41551  -0.98961
H     2.69128  -2.00191  -1.78434
H     0.50524  -3.41393   0.67498
H    -0.50834  -4.13716  -0.60486
H     0.96374  -3.22341  -1.04092
H     1.12260  -1.41132   1.83492
H    -1.02107  -2.93150   2.50120
H    -3.07136  -1.16534   2.71017
H    -1.97605   1.23023   2.15861
H    -2.18375  -1.54830  -1.58744
H    -4.85514  -0.38660  -2.12309
H    -4.89862  -1.90461  -1.19367
H    -4.15555  -1.87553  -2.82011
