55
Generated by autodE on: 2022-12-30. E = -1282.148759 Ha. Imaginary frequency = -278.9 cm-1
C    -3.11193   4.09998   0.24508
N    -2.20433   3.26683  -0.51618
C    -1.05267   2.79941   0.04487
O    -0.63323   3.26938   1.12028
C    -0.45539   1.68062  -0.68071
N     0.81271   1.22669  -0.52431
C     1.75125   1.99579   0.30871
C     1.12808  -0.01984  -1.03329
C     0.46619  -0.38860  -2.34074
C     2.47038  -0.59853  -0.77290
C     3.03120  -0.66635   0.52285
C     4.26476  -1.27657   0.74957
C     4.98541  -1.83971  -0.30803
C     4.45346  -1.77755  -1.59922
C     3.21841  -1.16935  -1.82715
C    -0.54468  -1.22919   0.22519
O    -0.83304  -2.25994  -0.61632
C     0.10828  -3.32814  -0.66613
C     0.11478  -1.48948   1.60075
C    -0.98189  -2.06358   2.52080
C    -1.80410  -1.03465   2.76029
C    -1.20779   0.14331   1.96333
O     0.19817  -0.14375   2.07994
C    -1.44484  -0.17444   0.46675
C    -2.73033   0.01271  -0.19951
O    -2.95112  -0.34425  -1.37490
N    -3.70536   0.63500   0.51903
C    -4.93724   1.06285  -0.11295
H    -3.95930   4.38007  -0.39279
H    -2.60884   5.01783   0.58255
H    -3.49990   3.58019   1.13878
H    -2.59013   2.75293  -1.30208
H    -0.98458   1.34999  -1.56665
H     1.56292   3.06055   0.14944
H     1.62930   1.77015   1.37302
H     2.77358   1.76841  -0.00613
H    -0.62707  -0.37649  -2.29121
H     0.75230  -1.39913  -2.64888
H     0.77911   0.31271  -3.13653
H     2.49110  -0.25167   1.36976
H     4.66180  -1.31748   1.76684
H     5.94978  -2.32036  -0.12799
H     5.00542  -2.20266  -2.44117
H     2.83685  -1.13184  -2.84715
H     0.10096  -3.90969   0.27065
H     1.12700  -2.95822  -0.85474
H    -0.19995  -3.98141  -1.49289
H     1.08569  -1.99208   1.60619
H    -1.05825  -3.10449   2.83362
H    -2.73954  -1.00944   3.31854
H    -1.43260   1.15977   2.30323
H    -3.45919   1.07413   1.39902
H    -5.50004   0.20245  -0.50565
H    -4.75151   1.75279  -0.95400
H    -5.55836   1.57558   0.63197
