53
Generated by autodE on: 2022-10-23. E = -2216.566796 Ha
C    -0.29508   5.02259   9.53688
N    -1.47525   4.55778   8.83891
C    -2.61158   5.26850   8.83156
O    -2.77474   6.29490   9.49889
C    -3.72596   4.72507   7.89964
N    -3.84387   3.27369   7.99125
C    -3.57151   2.65415   6.69569
C    -4.77835   1.97073   6.19014
N    -5.76502   1.45142   5.86845
C    -2.35822   1.69312   6.85764
O    -1.26305   2.19065   7.14708
N    -2.56924   0.37885   6.77431
C    -1.46965  -0.56800   6.83195
C    -3.21764   3.83278   5.76694
C    -3.40208   4.98895   6.43147
C    -3.17560   6.41029   5.96368
Cl   -3.72297   6.64457   4.23544
Cl   -4.24442   7.55946   6.90510
C    -1.72448   6.87941   6.10898
C    -0.64377   5.88482   5.67222
C    -0.72172   5.30041   4.24891
C    -1.22571   3.85648   4.13127
C    -2.70092   3.48531   4.37218
O    -2.84058   2.05156   4.33124
C    -2.26952   1.30234   3.27011
C    -3.62504   3.94948   3.22588
O    -3.23266   4.24453   2.11734
O    -4.90578   3.81937   3.55593
C    -5.87711   4.12715   2.54726
H     0.09472   5.95558   9.09463
H    -0.51216   5.21797  10.59832
H     0.48334   4.25185   9.47130
H    -1.40171   3.73211   8.23514
H    -4.64987   5.23217   8.20705
H    -4.73563   2.98460   8.38105
H    -3.45849   0.04961   6.41042
H    -0.81054  -0.32992   7.67748
H    -0.87225  -0.54016   5.90521
H    -1.87385  -1.57890   6.96504
H    -1.57212   7.10980   7.17361
H    -1.63575   7.83163   5.56530
H    -0.59781   5.06250   6.40095
H     0.30652   6.42972   5.78011
H     0.30333   5.26737   3.84890
H    -1.27650   5.96460   3.57223
H    -0.64980   3.22523   4.82419
H    -0.99311   3.51481   3.11372
H    -2.54754   1.70291   2.28138
H    -1.17257   1.24628   3.34507
H    -2.68257   0.28890   3.36790
H    -5.79449   5.18341   2.25182
H    -5.73381   3.48611   1.66591
H    -6.85493   3.93617   3.00356
