30
Generated by autodE on: 2022-10-23. E = -1573.954222 Ha
C    -4.82575   0.52079   1.48449
O    -3.76915   0.65253   0.51775
C    -2.58677   0.15268   0.85283
O    -2.34243  -0.39551   1.90581
C    -1.53291   0.41783  -0.23830
O    -2.07852   0.35594  -1.53713
C    -2.54478  -0.92426  -1.93994
C    -0.36555  -0.46447  -0.08271
C     0.80275  -0.78454  -0.07719
C     2.22913  -0.56296  -0.14346
Cl    2.90184  -0.54286   1.55830
Cl    3.07629  -1.88690  -1.06102
C     2.48907   0.79094  -0.82610
C     1.66271   1.97446  -0.28477
C     0.25124   2.22298  -0.88574
C    -0.98585   1.86144  -0.03978
H    -5.01488  -0.54081   1.69734
H    -5.70911   0.98230   1.02940
H    -4.55685   1.04168   2.41437
H    -3.36014  -1.28557  -1.28936
H    -2.92780  -0.81593  -2.96340
H    -1.72901  -1.66821  -1.93789
H     3.56533   0.99665  -0.72969
H     2.27690   0.64703  -1.89709
H     2.26711   2.86920  -0.49594
H     1.60582   1.91235   0.81436
H     0.17160   3.30370  -1.07689
H     0.16739   1.74427  -1.87475
H    -0.77237   2.00125   1.03104
H    -1.82580   2.52382  -0.29833
