23
Generated by autodE on: 2022-05-29. E = -517.871737 Ha
C     2.60445  -1.39436   0.61537
C     1.86934  -0.13852   0.24563
O     2.39262   0.96930   0.30049
C     0.46265  -0.28608  -0.19655
C    -0.43489   0.72883  -0.33489
C    -0.22932   2.11118  -0.09575
N    -0.14258   3.26083   0.07401
C    -1.79634   0.10807  -0.61653
C    -2.22411  -0.56256   0.73045
C    -1.20499  -1.72496   0.88211
C    -0.30959  -1.57654  -0.39383
C    -1.35810  -1.12530  -1.43257
H     2.03944  -1.95432   1.37831
H     2.68240  -2.05151  -0.26655
H     3.60744  -1.15085   0.98817
H    -2.53882   0.78586  -1.05216
H    -2.19654   0.15139   1.56513
H    -3.25353  -0.93733   0.63686
H    -0.61149  -1.66304   1.80473
H    -1.70510  -2.70401   0.86509
H     0.29481  -2.45831  -0.63158
H    -2.16910  -1.85486  -1.57258
H    -0.91632  -0.86375  -2.40504
