14
Generated by autodE on: 2022-05-29. E = -358.146560 Ha
C    -2.96550   0.09694  -0.01861
N    -1.64200   0.17884  -0.59553
C    -0.50048  -0.00378   0.11072
O    -0.48919  -0.25090   1.33642
C     0.73679   0.10755  -0.64836
N     1.85770  -0.07127   0.03836
N     3.07101  -0.02452  -0.39047
H    -3.55855  -0.70522  -0.48738
H    -2.87103  -0.11840   1.05215
H    -3.51487   1.04459  -0.13993
H    -1.55837   0.37373  -1.58800
H     0.79641   0.32347  -1.71458
H     1.65563  -0.26861   1.03663
H     3.66381  -0.21283   0.42464
