14
Generated by autodE on: 2022-07-26. E = -358.145134 Ha
C     1.99350   0.82117   1.18441
N     0.73392   0.31226   0.69107
C     0.45683   0.16107  -0.62646
O     1.25744   0.44774  -1.54009
C    -0.86349  -0.37120  -0.96417
N    -1.80613  -0.71625  -0.09336
N    -1.76404  -0.65509   1.20242
H     1.84677   1.73184   1.78797
H     2.50698   0.07625   1.81452
H     2.64161   1.06564   0.33455
H    -0.01140   0.03800   1.33962
H    -1.11350  -0.50564  -2.01391
H    -2.66351  -1.07457  -0.53741
H    -2.66219  -1.00272   1.54648
