37
Generated by autodE on: 2022-05-29. E = -876.015520 Ha. Imaginary frequency = -254.6 cm-1
C     3.84856   0.99423   1.16543
N     2.90598  -0.02891   0.75985
C     2.41885  -0.06677  -0.49592
O     2.83728   0.65916  -1.40852
C     1.37131  -1.07964  -0.80089
N     0.87635  -1.95458   0.09471
N     0.53576  -1.52800   1.28781
C    -1.08819  -0.18815   0.49687
C    -1.95994  -1.36718   0.54226
C    -2.86258  -1.52884   1.73623
O    -1.92181  -2.21122  -0.36106
C    -1.17859   1.01719   1.41506
C    -2.26481   1.94403   0.77985
C    -1.56973   2.46524  -0.51320
C    -0.18100   1.76093  -0.47123
C     0.10136   1.78302   1.04309
C    -0.47215   0.26693  -0.70179
C    -0.88769  -0.14345  -2.00457
N    -1.19427  -0.39192  -3.10182
H     3.39006   1.99824   1.14740
H     4.18985   0.78092   2.18594
H     4.71984   1.00663   0.49503
H     2.36535  -0.52050   1.47139
H     1.39426  -1.44162  -1.82847
H     0.36905  -2.75568  -0.30438
H     0.07345  -2.30275   1.77673
H    -3.40406  -2.48140   1.67165
H    -2.27697  -1.49211   2.66829
H    -3.58157  -0.69446   1.77697
H    -1.33599   0.78619   2.47472
H    -2.49849   2.76812   1.46991
H    -3.19877   1.40148   0.57549
H    -1.43132   3.55591  -0.48329
H    -2.12660   2.22340  -1.42997
H     0.57853   2.18147  -1.13983
H     0.11667   2.80604   1.44582
H     1.01409   1.26113   1.33820
