59
Generated by autodE on: 2022-06-26. E = -1251.349379 Ha
C    -2.47885  -0.76053  -3.20335
O    -2.55023  -0.64830  -1.77619
C    -1.57797  -1.23486  -1.07617
O    -0.71366  -1.91515  -1.59290
C    -1.73000  -0.97324   0.44043
C    -3.00827  -1.67250   0.91886
C    -3.72322  -1.18046   2.01938
C    -4.84506  -1.86004   2.50109
C    -5.26640  -3.04694   1.89355
C    -4.55230  -3.55043   0.80268
C    -3.43213  -2.86784   0.32017
C    -0.51539  -1.50389   1.21995
C     0.53789  -0.37054   1.27905
C     1.15530  -0.32829   2.68402
C     1.62904  -0.59607   0.24304
C     2.80371   0.06064   0.19755
C     3.78258  -0.12272  -0.86188
C     4.86533   0.65434  -1.10458
C     5.22701   1.87190  -0.30060
C     5.78658   0.35958  -2.25506
C    -0.33464   0.94778   0.94452
C    -0.28803   2.02567   2.03443
C     0.18821   1.53268  -0.38453
O    -0.15920   1.14367  -1.48297
O     1.07187   2.51889  -0.21798
C     1.70957   3.02943  -1.39808
N    -1.69687   0.44423   0.78138
C    -2.71073   1.35762   0.29258
H    -1.54671  -0.30928  -3.57239
H    -2.52372  -1.81514  -3.51102
H    -3.34518  -0.21430  -3.59403
H    -3.39531  -0.25889   2.50087
H    -5.39310  -1.45817   3.35693
H    -6.14516  -3.57674   2.26879
H    -4.86660  -4.47993   0.32188
H    -2.88193  -3.28357  -0.52724
H    -0.11728  -2.42385   0.77604
H    -0.85591  -1.73747   2.23630
H     1.90096   0.47076   2.79034
H     0.38621  -0.18698   3.45582
H     1.65952  -1.28713   2.88006
H     1.39801  -1.30792  -0.55382
H     3.02459   0.80777   0.96436
H     3.59255  -0.96019  -1.54403
H     4.54475   2.06503   0.53713
H     6.25232   1.78295   0.09946
H     5.22733   2.76529  -0.95017
H     6.82064   0.20250  -1.89892
H     5.47441  -0.53170  -2.81921
H     5.83036   1.21603  -2.95166
H    -0.83788   2.92301   1.71694
H     0.74248   2.32988   2.25052
H    -0.74667   1.64743   2.95613
H     2.43564   3.77328  -1.05083
H     2.22209   2.21823  -1.93361
H     0.96999   3.49986  -2.06172
H    -2.50797   1.75448  -0.71865
H    -3.68240   0.84903   0.25934
H    -2.81026   2.21150   0.98036
