23
Generated by autodE on: 2022-06-26. E = -351.521383 Ha
C    -3.75035  -0.09324  -0.47493
C    -2.57333  -0.18032   0.18309
C    -2.51988  -0.51686   1.65149
C    -1.31915   0.05344  -0.52999
C    -0.07732  -0.00553   0.01344
C     1.13573   0.23490  -0.74117
C     2.40982   0.19297  -0.27574
C     2.78462  -0.11976   1.14524
C     3.57114   0.46736  -1.18894
H    -4.70314  -0.26329   0.03414
H    -3.78619   0.15100  -1.54110
H    -1.93407  -1.43424   1.82808
H    -3.52814  -0.66650   2.06264
H    -2.02738   0.28560   2.22547
H    -1.41214   0.29562  -1.59558
H     0.02348  -0.24681   1.07511
H     0.99315   0.47495  -1.80181
H     3.35776   0.71702   1.58219
H     3.45296  -0.99826   1.17914
H     1.92355  -0.32044   1.79554
H     3.24884   0.69110  -2.21647
H     4.25842  -0.39727  -1.21861
H     4.16911   1.31875  -0.81697
