59
Generated by autodE on: 2022-06-26. E = -1251.277667 Ha. Imaginary frequency = -271.8 cm-1
C    -3.12996  -0.36547  -3.42805
O    -2.91700  -0.14549  -2.02964
C    -2.25394  -1.11072  -1.36925
O    -2.01297  -2.19780  -1.85782
C    -2.12601  -0.77569   0.09387
C    -3.13646  -1.54063   0.89613
C    -2.95426  -1.76758   2.27549
C    -3.88825  -2.48824   3.01833
C    -5.02844  -3.01331   2.40120
C    -5.22549  -2.79982   1.03495
C    -4.29404  -2.07010   0.29290
C    -0.16888  -1.75482   0.59401
C     0.80006  -0.81948   0.96081
C     0.82310  -0.27186   2.36568
C     1.94813  -0.60063   0.10749
C     3.05759   0.12749   0.41337
C     4.16318   0.30112  -0.50363
C     5.29465   1.02568  -0.30628
C     5.60131   1.78988   0.95089
C     6.34711   1.11805  -1.37536
C    -0.74469   1.24037   0.07875
C    -0.34923   2.46459   0.85187
C    -0.05566   0.98317  -1.17374
O    -0.27709   0.09192  -1.99318
O     0.93301   1.88420  -1.39713
C     1.67997   1.72709  -2.60373
N    -1.85130   0.53137   0.46893
C    -2.67082   1.14694   1.53427
H    -2.16785  -0.49152  -3.94518
H    -3.75301  -1.25676  -3.59289
H    -3.64441   0.52790  -3.80180
H    -2.07212  -1.37176   2.77712
H    -3.71913  -2.64656   4.08598
H    -5.75692  -3.58410   2.98162
H    -6.11489  -3.19618   0.53951
H    -4.48945  -1.90119  -0.76682
H    -0.04948  -2.30354  -0.34092
H    -0.70848  -2.28252   1.37801
H     1.15673   0.77477   2.40369
H    -0.16797  -0.32860   2.83547
H     1.52408  -0.85003   2.99504
H     1.90582  -1.07910  -0.87681
H     3.12056   0.61272   1.39089
H     4.05687  -0.20872  -1.46883
H     4.82536   1.69763   1.72207
H     6.55825   1.44921   1.38516
H     5.73417   2.86349   0.72621
H     7.31981   0.74503  -1.00589
H     6.07590   0.54574  -2.27495
H     6.51787   2.16934  -1.67098
H    -0.84501   3.38125   0.48374
H     0.73121   2.61919   0.74647
H    -0.56783   2.36904   1.92129
H     2.48703   2.46811  -2.55819
H     2.10493   0.71751  -2.68150
H     1.04317   1.91745  -3.48140
H    -2.78097   2.21526   1.31995
H    -3.66451   0.69366   1.52639
H    -2.22345   1.02339   2.52877
