11
Generated by autodE on: 2022-10-21. E = -231.273286 Ha
C     2.53628  -0.01119   0.65680
C     1.16488  -0.01683   0.15140
C     0.02763  -0.01935  -0.27228
O    -1.17854  -0.02646  -0.77062
C    -2.25597   0.06434   0.18709
H     2.63291  -0.63046   1.56396
H     3.23578  -0.41704  -0.09266
H     2.87618   1.00677   0.91031
H    -3.18557   0.05203  -0.39445
H    -2.17654   1.00256   0.75693
H    -2.22543  -0.79610   0.87272
