47
Generated by autodE on: 2022-10-21. E = -1019.617282 Ha. Imaginary frequency = -335.8 cm-1
C    -1.30905   4.11165  -0.30939
O    -1.44172   2.71128  -0.59824
C    -0.39094   1.98385  -0.22289
C     0.74693   1.86417   0.26731
C     2.02136   2.21030   0.91600
C     0.96246  -0.48401   0.11946
C     2.36817  -0.85249   0.26967
C     3.37278  -0.62183  -0.69540
C     4.70389  -0.93621  -0.42211
C     5.06785  -1.47705   0.81592
C     4.08834  -1.68733   1.79206
C     2.75753  -1.36996   1.52448
N     0.19004  -0.61109  -0.97277
C     0.76834  -0.98222  -2.26635
C    -1.12131  -0.13958  -0.85889
C    -1.85519   0.28210  -2.04563
C    -3.35950   0.42805  -1.92911
O    -1.30711   0.57443  -3.12136
C    -1.86814  -0.59148   0.36119
C    -1.85029  -1.95828   0.70494
C    -2.55773  -2.43501   1.80899
C    -3.31118  -1.55584   2.59513
C    -3.34124  -0.19851   2.26483
C    -2.62265   0.27931   1.16499
H    -2.22750   4.59532  -0.66696
H    -1.19721   4.27010   0.77516
H    -0.43448   4.52869  -0.83402
H     2.88689   1.99368   0.26950
H     2.05350   3.28367   1.17226
H     2.17570   1.63903   1.84655
H     0.40994  -0.42894   1.05417
H     3.12489  -0.15970  -1.64929
H     5.46690  -0.74578  -1.18039
H     6.11244  -1.72063   1.02298
H     4.36324  -2.09659   2.76694
H     1.99501  -1.52554   2.29143
H     1.19752  -0.11512  -2.78566
H    -0.00936  -1.42049  -2.89610
H     1.54886  -1.73214  -2.09392
H    -3.61650   1.28676  -1.29176
H    -3.76752   0.60393  -2.93358
H    -3.82653  -0.46262  -1.48367
H    -1.26939  -2.65448   0.09587
H    -2.52672  -3.50000   2.05254
H    -3.86847  -1.92697   3.45854
H    -3.92159   0.50026   2.87256
H    -2.64802   1.34197   0.92642
