24
Generated by autodE on: 2022-07-27. E = -593.038479 Ha
C    -3.09392   0.32718  -2.15670
N    -2.37571   1.00733  -1.10508
O    -1.34211   0.24660  -0.80551
C    -0.45841   0.44708   0.14818
C    -0.61899   1.46480   1.20402
C    -1.95578   2.10280   1.46135
O     0.35230   1.74889   1.90851
C     0.69660  -0.44905   0.04018
C     1.03356  -1.00282  -1.21542
C     2.10195  -1.88825  -1.34134
C     2.86447  -2.23832  -0.22166
C     2.54187  -1.69642   1.02695
C     1.47178  -0.81294   1.16298
H    -3.66388  -0.54171  -1.77394
H    -3.81078   1.04310  -2.58053
H    -2.42275  -0.03634  -2.95578
H    -2.12223   2.92852   0.75260
H    -1.94552   2.50113   2.48558
H    -2.78668   1.39780   1.31674
H     0.45694  -0.72097  -2.09763
H     2.34807  -2.29954  -2.32312
H     3.70611  -2.92742  -0.32214
H     3.12586  -1.96972   1.90894
H     1.22725  -0.41105   2.14410
