24
Generated by autodE on: 2022-05-31. E = -593.045313 Ha
C    -2.82553   2.45748   0.13757
N    -1.50142   1.88431   0.04625
O    -1.65805   0.57832   0.05127
C    -0.69926  -0.32032   0.03641
C    -1.25551  -1.68395   0.05164
C    -2.75482  -1.83432   0.16348
O    -0.52144  -2.66824  -0.03542
C     0.72337   0.00191  -0.01895
C     1.65846  -0.85691   0.60493
C     3.02311  -0.58623   0.54080
C     3.49086   0.53497  -0.15384
C     2.57793   1.39035  -0.77776
C     1.20832   1.13856  -0.70414
H    -2.70866   3.54884   0.12683
H    -3.34526   2.16665   1.06969
H    -3.46717   2.16294  -0.71361
H    -3.13117  -1.35079   1.07778
H    -3.26115  -1.35619  -0.68907
H    -2.99593  -2.90471   0.18164
H     1.30674  -1.73150   1.14819
H     3.72811  -1.25459   1.04045
H     4.56209   0.74378  -0.20273
H     2.93359   2.26817  -1.32221
H     0.50794   1.81798  -1.18291
