49
Generated by autodE on: 2022-05-31. E = -1166.324785 Ha. Imaginary frequency = -89.0 cm-1
C    -3.82228   2.13942   1.52053
N    -2.81618   1.13154   1.24777
C    -2.81879   0.43788   0.09207
O    -3.75640   0.52134  -0.71566
C    -1.66819  -0.46279  -0.19903
C    -1.76439  -1.49190  -1.31110
C    -2.34905  -2.76717  -0.61466
C    -1.17655  -3.24233   0.29114
C    -0.07217  -2.17349   0.01367
C    -0.29496  -1.91230  -1.48573
C    -0.63191  -0.88265   0.61775
C    -0.42870  -0.56819   1.98081
N    -0.25163  -0.34267   3.11179
C     1.20599   1.03286  -0.17034
C     0.95309   1.99055   0.93384
C     0.07260   3.19415   0.71302
O     1.54470   1.85630   2.00301
C     2.41746   0.20687  -0.27310
C     2.93790  -0.11980  -1.54497
C     4.05615  -0.94081  -1.66705
C     4.67723  -1.46450  -0.52734
C     4.16716  -1.15289   0.73589
C     3.05201  -0.32418   0.86945
O     0.53094   1.09217  -1.30480
N    -0.73491   1.48726  -1.34879
C    -1.15515   1.44698  -2.72798
H    -3.78222   2.95938   0.78395
H    -3.64623   2.55264   2.52120
H    -4.83235   1.70434   1.48863
H    -1.99780   1.10847   1.84540
H    -2.31663  -1.16609  -2.19754
H    -2.59812  -3.51772  -1.37879
H    -3.26611  -2.53858  -0.05368
H    -0.81153  -4.23554  -0.00887
H    -1.44231  -3.28617   1.35687
H     0.93654  -2.44060   0.34853
H    -0.18715  -2.82610  -2.08755
H     0.34588  -1.12993  -1.90368
H     0.41291   3.97280   1.40989
H    -0.97359   2.94605   0.93740
H     0.10237   3.55723  -0.32321
H     2.46403   0.28234  -2.44065
H     4.44633  -1.17341  -2.66059
H     5.55121  -2.11247  -0.62495
H     4.63719  -1.56365   1.63251
H     2.65536  -0.10015   1.85550
H    -0.85764   2.37403  -3.25415
H    -2.25234   1.39833  -2.72463
H    -0.73667   0.58661  -3.27662
