40
Generated by autodE on: 2022-06-17. E = -844.246521 Ha
C     3.19322   1.79451   1.91185
N     2.26741   1.50101   0.83915
C     2.06816   0.26539   0.37020
O     2.72816  -0.72526   0.71695
C     0.97511   0.13359  -0.70973
C     1.68360   0.05113  -2.06524
N     0.04006   1.26777  -0.65898
C    -1.27757   0.85128  -0.12963
C    -1.82234   1.90667   0.83800
C    -2.25690   0.66775  -1.31294
C    -3.73618   0.81486  -1.08154
O    -1.82702   0.45585  -2.43735
C    -1.00557  -0.56557   0.54440
C    -0.51369  -0.39087   1.99234
C    -2.21792  -1.50342   0.56246
C     0.09659  -1.09995  -0.39772
C     0.84290  -2.35658  -0.04395
O     0.58424  -3.11010   0.87776
H     4.13308   1.24592   1.75926
H     2.78355   1.50421   2.89494
H     3.40865   2.87080   1.92620
H     1.54221   2.16560   0.56928
H     2.24714   0.97692  -2.25798
H     2.39033  -0.78990  -2.08693
H     0.93962  -0.08388  -2.86368
H    -0.08581   1.63271  -1.60019
H    -2.72960   1.56523   1.35521
H    -2.06496   2.83240   0.29415
H    -1.06331   2.15121   1.59095
H    -3.96930   1.89333  -1.07434
H    -4.28409   0.34667  -1.90983
H    -4.06641   0.40806  -0.11869
H     0.27310   0.36684   2.09364
H    -0.12135  -1.34463   2.36591
H    -1.34647  -0.08835   2.64308
H    -2.58702  -1.73208  -0.44900
H    -1.93223  -2.45481   1.03229
H    -3.04476  -1.07537   1.14815
H    -0.38021  -1.36763  -1.35908
H     1.62823  -2.63274  -0.78338
