26
Generated by autodE on: 2022-07-27. E = -573.512732 Ha
C     2.52536   1.49380   1.89499
N     1.78373   0.97898   0.76067
C     1.83520  -0.32567   0.41966
O     2.65274  -1.11114   0.92354
C     0.95039  -0.76298  -0.69288
C     1.55999  -1.65400  -1.72612
N    -0.31962  -0.42181  -0.80218
C    -1.26406   0.12873   0.01870
C    -1.04619   0.29835   1.48514
C    -2.50593   0.33805  -0.66573
C    -3.69018   0.86290   0.11310
O    -2.62524   0.07942  -1.89053
H     3.60394   1.30974   1.77649
H     2.35657   2.57497   1.96840
H     2.20064   1.01814   2.83559
H     1.09351   1.57914   0.32299
H     2.49845  -1.22840  -2.11753
H     1.81155  -2.63321  -1.28343
H     0.86590  -1.82350  -2.56217
H    -0.76871  -0.64376  -1.70759
H    -2.00679   0.25887   2.01579
H    -0.55594   1.24610   1.76710
H    -0.41269  -0.51501   1.88001
H    -4.51435   1.07254  -0.58152
H    -3.43578   1.77998   0.66676
H    -4.03068   0.12050   0.85407
