26
Generated by autodE on: 2022-06-17. E = -573.521736 Ha
C     4.30454   0.44294  -0.30407
N     3.10623  -0.37014  -0.34802
C     1.88646   0.16428  -0.13694
O     1.73625   1.38079   0.09990
C     0.72294  -0.75101  -0.19912
C     0.87862  -2.21170  -0.47026
N    -0.41310  -0.10811   0.01739
C    -1.73683  -0.37342   0.08110
C    -2.30867  -1.73636  -0.13682
C    -2.50866   0.81074   0.37490
C    -4.01162   0.70113   0.48781
O    -1.95269   1.92175   0.53686
H     4.44313   0.90158   0.68838
H     5.17175  -0.19164  -0.52322
H     4.26360   1.25592  -1.04650
H     3.19801  -1.36096  -0.53811
H     1.36594  -2.37754  -1.44667
H    -0.07515  -2.74377  -0.47650
H     1.52250  -2.68130   0.29363
H    -0.24438   0.90353   0.19065
H    -2.06193  -2.13299  -1.13640
H    -1.94280  -2.46528   0.60635
H    -3.40137  -1.71060  -0.05725
H    -4.42530   1.68995   0.72512
H    -4.45584   0.34086  -0.45396
H    -4.30116  -0.01111   1.27687
