12
Generated by autodE on: 2022-06-16. E = -157.300302 Ha
C    -1.94683   0.21403   0.14716
C    -0.46481   0.39569   0.27577
C     0.46481  -0.39566  -0.27582
C     1.94683  -0.21405  -0.14712
H    -2.42204   0.08764   1.13627
H    -2.42084   1.10109  -0.30948
H    -2.19879  -0.66390  -0.46834
H    -0.13173   1.25394   0.87612
H     0.13173  -1.25391  -0.87617
H     2.19877   0.66407   0.46811
H     2.42074  -1.10097   0.30990
H     2.42215  -0.08805  -1.13622
