16
Generated by autodE on: 2022-06-16. E = -326.040236 Ha
C    -1.58742   0.92468   0.59294
N    -1.22395  -0.19604   0.02408
C    -2.26898  -1.17765  -0.32980
C     0.06668  -0.59230  -0.29676
C     1.21804   0.17229  -0.03829
C     2.54219  -0.43854  -0.46278
O     1.23245   1.30935   0.51129
H    -2.64727   1.08868   0.78347
H    -0.81463   1.64362   0.85129
H    -2.07291  -2.11562   0.20580
H    -3.25266  -0.78533  -0.05320
H    -2.22939  -1.36660  -1.41039
H     0.13146  -1.56703  -0.77271
H     3.19994  -0.52664   0.41792
H     2.43738  -1.42737  -0.93111
H     3.04480   0.24176  -1.17031
