33
Generated by autodE on: 2022-05-29. E = -3301.704728 Ha
C     0.31397   1.01949  -1.14265
C    -0.22695   0.49795   0.17724
C    -1.17041   1.51268   0.90905
C    -2.27658   1.92471  -0.05305
C    -3.09261   0.86753  -0.13233
C    -2.48638  -0.17706   0.79750
O    -1.88320   0.64076   1.81175
C    -1.19516  -0.74961   0.14425
Br   -1.60986  -1.43804  -1.71392
N    -0.57902  -1.78790   0.90506
N     0.80113  -1.49445   1.09353
C     0.88097  -0.02608   1.16122
C     2.26301   0.53150   0.94431
C     2.63524   1.70147   1.62463
C     3.88720   2.28553   1.41765
C     4.79582   1.69903   0.53083
C     4.43932   0.52919  -0.14641
C     3.18143  -0.04649   0.05481
H     0.96771   0.28202  -1.62789
H    -0.50140   1.25459  -1.83880
H     0.90143   1.93400  -0.97072
H    -0.64365   2.30440   1.45451
H    -2.31188   2.85774  -0.61449
H    -3.96352   0.71688  -0.76782
H    -3.14986  -0.93617   1.22858
H    -1.03133  -1.88678   1.81328
H     1.28188  -1.82086   0.25313
H     0.56424   0.25623   2.17525
H     1.93080   2.15673   2.32554
H     4.15676   3.19749   1.95592
H     5.77825   2.14970   0.37094
H     5.14251   0.06158  -0.83982
H     2.92182  -0.95287  -0.49636
