17
Generated by autodE on: 2022-05-29. E = -381.183183 Ha
N     3.57693  -0.87962   0.33937
N     2.28788  -0.68429   0.37749
C     1.47852   0.03414  -0.38994
C     0.04864   0.13732  -0.19425
C    -0.68885   0.94610  -1.09146
C    -2.06911   1.09226  -0.96454
C    -2.76081   0.43697   0.06059
C    -2.04637  -0.36728   0.95747
C    -0.66614  -0.51818   0.83751
H     3.92179  -0.33525  -0.46464
H     1.84078  -1.18725   1.15170
H     1.95622   0.57111  -1.21272
H    -0.15862   1.46235  -1.89582
H    -2.61063   1.72399  -1.67326
H    -3.84250   0.55060   0.16060
H    -2.57188  -0.88584   1.76334
H    -0.14762  -1.15512   1.55857
