21
Generated by autodE on: 2022-05-31. E = -478.793429 Ha
C     3.45465  -0.47408  -0.67983
C     2.16380   0.23019  -0.51471
N     1.08860  -0.40287  -0.17173
C    -0.24781  -0.02632   0.05820
C    -1.02132  -1.19355   0.42837
C    -2.49410  -1.12968   0.74809
O    -0.45141  -2.30705   0.49074
C    -0.63222   1.34956  -0.09108
C    -2.06113   1.79886   0.13826
O     0.20425   2.21921  -0.41822
H     4.20751  -0.03451  -0.00312
H     3.83304  -0.32143  -1.70524
H     3.36807  -1.55198  -0.47909
H     2.07794   1.30367  -0.67707
H     1.15625  -1.42467  -0.01359
H    -3.07792  -0.75056  -0.10260
H    -2.69187  -0.47075   1.60581
H    -2.83218  -2.14523   0.99108
H    -2.09895   2.88253  -0.03348
H    -2.76050   1.30418  -0.55117
H    -2.39846   1.58832   1.16316
