19
Generated by autodE on: 2022-05-31. E = -3109.086371 Ha
C     3.64101   0.74429  -0.22385
O     2.27883   0.29933  -0.21362
C     1.39228   1.06024  -0.85930
O     1.68662   2.08192  -1.46097
C     0.02197   0.55646  -0.78001
C    -0.58458  -0.37012  -0.01428
Br    0.06689  -1.50057   1.31253
C    -2.09715  -0.25160  -0.33369
C    -2.56087   1.09744   0.26214
C    -1.97316   2.02240  -0.50148
C    -1.15447   1.22271  -1.53905
O    -2.01137   0.07953  -1.72493
H     3.72765   1.73511   0.24579
H     4.20478   0.00166   0.35262
H     4.02371   0.79571  -1.25375
H    -2.70880  -1.13928  -0.14255
H    -3.18453   1.20691   1.14821
H    -1.98365   3.10838  -0.41795
H    -0.89763   1.71602  -2.48134
