47
Generated by autodE on: 2022-06-19. E = -795.402517 Ha
C     4.43735  -1.44844  -1.21631
C     4.12656  -0.83685   0.12165
C     5.19039  -1.03478   1.16600
C     2.99071  -0.15620   0.40640
C     1.87429   0.10965  -0.48860
C     0.77136   0.78387  -0.10749
C    -0.44226   1.09499  -0.94762
C    -0.27908   0.67067  -2.40410
C    -0.80039   2.60085  -0.81022
C    -1.76922   2.73253   0.40081
C    -1.16312   3.55494   1.54078
C    -3.10053   3.35853  -0.03831
N    -1.96402   1.32895   0.84380
C    -1.72266   0.45859  -0.29956
C    -1.59419  -1.00412   0.04947
C    -1.93292  -1.97688  -0.90369
C    -1.75259  -3.33761  -0.63782
C    -1.23686  -3.74838   0.59541
C    -0.90682  -2.78781   1.55755
C    -1.08167  -1.42844   1.28501
H     4.60427  -2.53529  -1.11191
H     3.64893  -1.29544  -1.96459
H     5.37794  -1.03267  -1.61939
H     4.92199  -0.56879   2.12572
H     5.37466  -2.11023   1.34094
H     6.15442  -0.61126   0.83080
H     2.88173   0.24053   1.42343
H     1.94557  -0.27028  -1.51091
H     0.72459   1.14627   0.92458
H    -1.19128   0.90368  -2.97394
H    -0.09098  -0.40965  -2.49556
H     0.56276   1.19976  -2.87704
H    -1.30246   2.93416  -1.73015
H     0.09951   3.22039  -0.68722
H    -1.83056   3.55418   2.41816
H    -1.00892   4.60193   1.23357
H    -0.19194   3.13890   1.84936
H    -2.95005   4.37558  -0.43485
H    -3.57655   2.75471  -0.82741
H    -3.79836   3.42667   0.81296
H    -2.90547   1.19334   1.20973
H    -2.51878   0.54467  -1.06731
H    -2.34637  -1.66088  -1.86497
H    -2.02188  -4.07938  -1.39395
H    -1.09881  -4.81135   0.80805
H    -0.50880  -3.09952   2.52671
H    -0.82766  -0.67995   2.03575
