23
Generated by autodE on: 2022-06-19. E = -351.521382 Ha
C    -3.52547  -0.07877  -1.36592
C    -2.54738   0.05139  -0.44273
C    -2.86644   0.34859   1.00021
C    -1.14754  -0.09688  -0.83609
C    -0.07818   0.00561  -0.00734
C     1.29236  -0.15158  -0.44986
C     2.41165  -0.06941   0.31310
C     2.41432   0.20775   1.78972
C     3.77258  -0.25759  -0.29543
H    -4.58065   0.02692  -1.09890
H    -3.29057  -0.29492  -2.41272
H    -3.95052   0.43686   1.15853
H    -2.39082   1.28833   1.32678
H    -2.48300  -0.44450   1.66351
H    -0.96794  -0.30993  -1.89683
H    -0.24926   0.21717   1.05161
H     1.42348  -0.35969  -1.51872
H     1.41168   0.33600   2.21740
H     2.91662  -0.61325   2.33124
H     2.99953   1.11902   2.00614
H     4.40043   0.63721  -0.13425
H     4.30575  -1.09505   0.18958
H     3.72144  -0.45686  -1.37590
