47
Generated by autodE on: 2022-06-19. E = -795.344361 Ha. Imaginary frequency = -293.7 cm-1
C     2.74890  -3.01698  -1.27527
C     2.97802  -2.19417  -0.03805
C     3.76417  -2.88089   1.04446
C     2.51328  -0.92768   0.12815
C     1.72422  -0.14154  -0.79127
C     1.18323   1.06994  -0.45762
C     0.34414   1.90461  -1.27510
C     0.02702   1.46428  -2.68393
C    -0.07269   3.14352  -0.79615
C    -2.06919   2.93874   0.18499
C    -2.10328   4.06334   1.17818
C    -2.94082   3.07461  -1.03130
N    -1.89930   1.69541   0.70252
C    -1.83394   0.54810  -0.00417
C    -1.31395  -0.68104   0.49954
C    -1.19831  -1.77897  -0.39346
C    -0.62514  -2.98301   0.00718
C    -0.13764  -3.14202   1.31050
C    -0.24057  -2.06779   2.20756
C    -0.80997  -0.85988   1.81625
H     3.70743  -3.25696  -1.77165
H     2.10014  -2.52459  -2.01170
H     2.28870  -3.98656  -1.01473
H     3.89897  -2.23874   1.92806
H     3.26347  -3.81145   1.36907
H     4.76488  -3.18420   0.68364
H     2.72518  -0.44475   1.09097
H     1.52628  -0.55382  -1.78426
H     1.38604   1.44882   0.55279
H    -0.66791   2.16032  -3.17525
H    -0.41967   0.45682  -2.71734
H     0.94376   1.41544  -3.30059
H    -0.45711   3.89296  -1.49212
H     0.38693   3.53693   0.11451
H    -3.13046   4.25093   1.54424
H    -1.74981   4.99589   0.71186
H    -1.46325   3.85167   2.04925
H    -2.94253   4.11764  -1.37684
H    -2.61486   2.44200  -1.86785
H    -3.98410   2.79586  -0.78641
H    -1.48318   1.67484   1.63296
H    -2.25073   0.57000  -1.00747
H    -1.56746  -1.66569  -1.41608
H    -0.54648  -3.80521  -0.70873
H     0.31661  -4.08447   1.62361
H     0.13870  -2.17380   3.22744
H    -0.86335  -0.04488   2.54307
