33
Generated by autodE on: 2022-07-27. E = -820.210136 Ha
C     1.85021   1.85138  -0.83897
N     1.08469   0.99687   0.08616
C     0.14298   0.16471  -0.33841
C    -0.48653   0.34256  -1.65831
C    -0.91972   1.60870  -2.09722
C    -1.55752   1.74367  -3.32961
C    -1.76325   0.62360  -4.14210
C    -1.34161  -0.63893  -3.71075
C    -0.71963  -0.78345  -2.47179
C    -0.31980  -0.95941   0.49803
C     0.60472  -1.79809   1.15109
C     0.15839  -2.90321   1.87018
C    -1.21237  -3.17636   1.96699
C    -2.13513  -2.34548   1.32662
C    -1.69230  -1.24850   0.58569
C     1.41072   1.15529   1.45550
C     2.72483   1.45935   1.84090
N     3.81263   1.71990   2.19239
C     0.42989   0.99908   2.44494
N    -0.37835   0.88414   3.28547
H     1.73020   1.49715  -1.86540
H     1.52633   2.89589  -0.74586
H     2.90973   1.78135  -0.56002
H    -0.77864   2.48373  -1.46145
H    -1.90098   2.72801  -3.65496
H    -2.25907   0.73377  -5.10918
H    -1.50210  -1.51601  -4.34135
H    -0.39596  -1.76888  -2.13299
H     1.67323  -1.58759   1.08290
H     0.88308  -3.55808   2.35887
H    -1.55789  -4.03935   2.54067
H    -3.20481  -2.55349   1.39915
H    -2.41175  -0.60279   0.07961
