53
Generated by autodE on: 2022-06-25. E = -1277.904669 Ha. Imaginary frequency = -345.4 cm-1
C     3.30825  -0.53264   2.52729
N     2.74128  -0.41129   1.18720
C     3.21570   0.52570   0.29862
C     2.68961   0.69305  -0.94049
C     3.27936   1.74875  -1.79238
N     2.79473   1.83915  -3.05316
O     4.16636   2.52219  -1.38873
C     1.59365  -0.21777  -1.45465
C     0.94935  -1.03266  -0.33981
C     1.60313  -1.10519   0.89803
C    -0.03546   0.86026   1.97331
C     0.95704   1.79099   2.32617
N     1.82644   2.51944   2.62058
C    -0.43908   0.00118   3.01653
N    -0.66202  -0.65124   3.96471
N    -0.62034   0.94403   0.68745
C    -0.18375   2.11579  -0.07457
C    -0.95593  -0.22504   0.03436
C    -1.65770  -0.10357  -1.29943
C    -2.64006   0.88756  -1.48855
C    -3.37583   0.95087  -2.67244
C    -3.15570   0.01846  -3.69030
C    -2.20252  -0.98535  -3.50310
C    -1.46684  -1.05138  -2.31758
C    -1.70636  -1.24110   0.88213
C    -1.36235  -2.59029   1.02818
C    -2.15026  -3.44240   1.80756
C    -3.30415  -2.96794   2.43444
C    -3.67741  -1.63124   2.26323
C    -2.88946  -0.78022   1.49186
H     4.20103   0.09796   2.60239
H     2.57735  -0.21582   3.28535
H     3.58844  -1.57829   2.72308
H     4.04196   1.14232   0.64947
H     3.17011   2.55407  -3.66708
H     2.08581   1.21410  -3.41566
H     0.82984   0.36638  -1.99157
H     2.00618  -0.90694  -2.21596
H     0.51259  -1.97778  -0.65613
H     1.30459  -1.83498   1.65075
H    -0.60682   2.10159  -1.07910
H    -0.50909   3.02880   0.44076
H     0.91546   2.13160  -0.16519
H    -2.84173   1.60886  -0.69572
H    -4.13066   1.73115  -2.79425
H    -3.73035   0.06792  -4.61792
H    -2.02810  -1.72975  -4.28327
H    -0.74475  -1.85707  -2.19437
H    -0.47457  -3.00129   0.55255
H    -1.85327  -4.48721   1.92332
H    -3.91376  -3.63718   3.04585
H    -4.58303  -1.24672   2.73797
H    -3.18282   0.26396   1.37261
