50
Generated by autodE on: 2022-06-02. E = -1262.498303 Ha
C     3.84318  -1.17581  -0.51655
C     2.84376  -0.07062  -0.68673
O     3.01005   0.81689  -1.50744
C     1.59175   0.01682   0.21885
C     1.84286   1.10259   1.34167
C     3.16469   1.81171   1.42078
O     1.03423   1.17164   2.25186
N     1.25045  -1.24852   0.88212
C     1.98816  -1.65643   2.07299
C    -0.19023  -1.30774   1.07242
C    -0.66874  -2.69495   1.19772
N    -1.05925  -3.78021   1.32203
C    -0.83498  -0.56595  -0.12409
C    -2.10202   0.18324   0.29663
C    -3.30836   0.08867  -0.41174
C    -4.43191   0.82284  -0.01939
C    -4.37189   1.67266   1.08651
C    -3.17330   1.78090   1.79783
C    -2.05427   1.04383   1.40736
C    -1.08240  -1.47999  -1.38776
C     0.12077  -2.35496  -1.69067
C     1.02975  -1.53809  -2.23485
C     0.38753  -0.16555  -2.20339
O    -0.98703  -0.48678  -2.41652
C     0.33747   0.35224  -0.66762
C     0.07869   1.85936  -0.73993
C    -1.06495   2.40888  -1.55146
O     0.84385   2.63349  -0.18776
H     4.49329  -1.20827  -1.40039
H     3.36075  -2.14576  -0.34700
H     4.46631  -0.95046   0.36509
H     3.13317   2.53760   2.24338
H     3.94802   1.06445   1.63306
H     3.42562   2.30760   0.47938
H     1.86809  -2.74055   2.22181
H     3.05828  -1.45297   1.95998
H     1.63815  -1.14352   2.98754
H    -0.49227  -0.81452   2.01309
H    -3.39237  -0.54186  -1.29503
H    -5.35820   0.72992  -0.59120
H    -5.24950   2.24859   1.38915
H    -3.10422   2.44724   2.66092
H    -1.11942   1.16318   1.95566
H    -2.05082  -1.98586  -1.39134
H     0.20129  -3.41701  -1.46609
H     2.03294  -1.76943  -2.58566
H     0.74232   0.58366  -2.91572
H    -1.78196   2.86713  -0.85294
H    -1.58394   1.65719  -2.14903
H    -0.67070   3.21209  -2.19201
