28
Generated by autodE on: 2022-06-02. E = -691.408485 Ha
C    -3.08291   1.74995  -0.78430
C    -1.66053   1.63802  -0.28844
O    -0.89349   2.59823  -0.37330
C    -1.28288   0.34228   0.28208
C    -0.08440  -0.30505   0.38389
C     1.29614   0.02732   0.05728
C     2.19069  -1.02126  -0.25969
C     3.51628  -0.75326  -0.59575
C     3.98780   0.56391  -0.59915
C     3.12018   1.61028  -0.26862
C     1.78867   1.35039   0.05310
C    -0.47937  -1.74465   0.83587
C    -1.17257  -2.41944  -0.36428
C    -2.34597  -1.78912  -0.47207
C    -2.33519  -0.74074   0.66096
O    -1.60266  -1.44581   1.67230
H    -3.35025   0.89708  -1.42833
H    -3.20984   2.69184  -1.33347
H    -3.77588   1.73535   0.07352
H     1.84237  -2.05522  -0.26361
H     4.18645  -1.57709  -0.85139
H     5.02968   0.77289  -0.85303
H     3.48489   2.64014  -0.25994
H     1.11076   2.16335   0.30129
H     0.29006  -2.31291   1.36720
H    -0.72801  -3.19073  -0.99198
H    -3.13740  -1.90499  -1.21170
H    -3.30157  -0.38135   1.02719
