48
Generated by autodE on: 2022-10-22. E = -1446.984232 Ha
C    -0.40270  -3.31456  -0.97827
O     0.77378  -2.58958  -1.35126
C     1.20401  -1.58951  -0.50416
F     1.64061  -2.22360   0.68057
C     2.41991  -0.88365  -1.11132
C     2.16725   0.34944  -1.98129
C     1.42922   0.15036  -3.30913
C     0.01281  -0.43739  -3.26800
C    -0.94829   0.21006  -2.30176
F    -1.00604   1.56739  -2.57915
F    -2.22031  -0.25952  -2.56213
C    -0.74723   0.08906  -0.80799
C     0.10870  -0.62500  -0.07047
C    -0.10623  -0.31194   1.41505
C    -0.66908  -1.50147   2.09945
N    -1.16502  -2.41581   2.61007
C     1.14718   0.21637   2.10702
C     1.76176  -0.46438   3.16186
C     2.93125   0.04489   3.73230
C     3.48714   1.23373   3.25210
C     2.86602   1.91808   2.20168
C     1.69858   1.41232   1.62856
O    -1.11046   0.71113   1.41184
C    -1.69245   0.85254   0.13036
C    -3.03181   0.22043   0.13985
N    -4.07105  -0.28917   0.20425
C    -1.76560   2.39550  -0.19422
C    -3.02307   2.92408  -0.79819
O    -0.80302   3.06397   0.09617
H    -1.30184  -2.68251  -1.04828
H    -0.48813  -4.14287  -1.69258
H    -0.31153  -3.71929   0.04006
H     3.04007  -0.57729  -0.25707
H     2.97310  -1.65609  -1.66845
H     1.66153   1.12200  -1.38126
H     3.15635   0.77117  -2.21861
H     1.38443   1.12988  -3.81021
H     2.02707  -0.50542  -3.96244
H    -0.45820  -0.31077  -4.25460
H     0.03104  -1.50875  -3.05053
H     1.33846  -1.39691   3.53804
H     3.40790  -0.49165   4.55551
H     4.40309   1.62866   3.69751
H     3.29279   2.85024   1.82506
H     1.20452   1.94860   0.81856
H    -2.86444   3.95048  -1.15099
H    -3.80714   2.91789  -0.02100
H    -3.37282   2.27899  -1.61703
