24
Generated by autodE on: 2022-10-26. E = -722.273673 Ha
C    -3.21527   1.78296  -2.36883
C    -1.89276   1.60691  -1.67062
O    -1.00984   2.46595  -1.69124
C    -1.69431   0.35274  -0.95169
C    -2.64764  -0.67854  -0.88449
N    -3.47784  -1.50143  -0.87052
O    -0.50049   0.25794  -0.35482
C     0.11568  -0.60298   0.38334
C    -0.51298  -1.82461   0.77247
N    -0.97582  -2.83124   1.12680
C     1.46082  -0.27868   0.80371
C     2.19943  -1.17875   1.60242
C     3.49424  -0.85301   1.99550
C     4.06356   0.36335   1.60222
C     3.33303   1.26107   0.80958
C     2.04054   0.94950   0.40821
H    -3.24064   2.76641  -2.85471
H    -4.04627   1.70291  -1.64971
H    -3.36067   0.99334  -3.12366
H     1.75848  -2.12834   1.91092
H     4.06332  -1.55153   2.61187
H     5.07987   0.61480   1.91305
H     3.77981   2.20960   0.50502
H     1.46372   1.64004  -0.20812
