24
Generated by autodE on: 2022-10-22. E = -724.585045 Ha
C     0.96924  -2.91001  -1.49646
O    -0.25912  -2.18291  -1.45563
C    -0.61920  -1.66899  -0.22604
F    -0.88279  -2.72931   0.64623
C     0.41070  -0.78922   0.35980
C     0.94110   0.26716   0.62376
C     1.01043   1.72944   0.69476
F     2.27522   2.19950   0.46901
F     0.68340   2.13954   1.96511
C     0.03969   2.32932  -0.31573
C    -1.39685   1.77408  -0.26638
C    -1.73064   0.51268  -1.11154
C    -1.89520  -0.83555  -0.38257
H     0.93839  -3.77750  -0.81954
H     1.82050  -2.26354  -1.22380
H     1.09467  -3.25624  -2.53010
H     0.03796   3.41212  -0.11202
H     0.47985   2.18006  -1.31368
H    -1.69027   1.61633   0.78506
H    -2.04208   2.58702  -0.63013
H    -0.99848   0.39733  -1.92789
H    -2.69317   0.70506  -1.60772
H    -2.59588  -1.48159  -0.93440
H    -2.30706  -0.68313   0.62630
