48
Generated by autodE on: 2022-10-22. E = -1446.865857 Ha. Imaginary frequency = -177.4 cm-1
C    -0.41514  -3.78522  -0.12939
O     0.62558  -3.26572  -0.95866
C     1.11039  -2.01603  -0.63159
F     1.69179  -2.08132   0.64237
C     2.19929  -1.63862  -1.65121
C     2.45353  -0.13153  -1.82888
C     1.83106   0.52344  -3.08211
C     0.37933   0.21799  -3.48435
C    -0.70087   0.64929  -2.50334
F    -0.59954   1.99367  -2.24819
F    -1.93900   0.47331  -3.06979
C    -0.57858  -0.13076  -1.25980
C     0.04706  -0.97249  -0.61896
C    -0.26700   0.04044   1.78302
C    -0.90619  -1.16774   2.19938
N    -1.39378  -2.13664   2.61924
C     1.07292   0.38223   2.22356
C     1.77992  -0.44490   3.11874
C     3.07657  -0.10788   3.49467
C     3.67891   1.04921   2.98597
C     2.97808   1.87590   2.09762
C     1.68243   1.54899   1.71271
O    -0.95366   1.00995   1.24388
C    -2.01109   1.01830   0.42802
C    -2.93663  -0.05394   0.38894
N    -3.71381  -0.91965   0.30573
C    -2.34307   2.37104  -0.06907
C    -3.56923   2.49061  -0.92696
O    -1.62927   3.32108   0.22725
H    -1.29408  -3.11894  -0.13458
H    -0.69539  -4.75657  -0.55621
H    -0.06874  -3.92413   0.90472
H     3.10742  -2.15519  -1.30671
H     1.90795  -2.10228  -2.60464
H     2.14750   0.40398  -0.91709
H     3.53935   0.02935  -1.90480
H     1.94649   1.61520  -2.99071
H     2.43761   0.22708  -3.95325
H     0.15453   0.74079  -4.42786
H     0.23134  -0.85699  -3.66532
H     1.31417  -1.35008   3.51161
H     3.62275  -0.75027   4.18817
H     4.69893   1.30645   3.27969
H     3.45034   2.77573   1.69840
H     1.13050   2.18081   1.01622
H    -3.61163   3.49734  -1.36117
H    -4.46777   2.31996  -0.31091
H    -3.56624   1.73390  -1.72468
