37
Generated by autodE on: 2022-06-18. E = -967.429402 Ha
C     4.23957  -1.86743  -0.22175
N     3.11903  -0.94875  -0.24982
C     2.03452  -1.15577   0.51980
O     1.86253  -2.15136   1.22554
N     1.05464  -0.15029   0.45689
N     1.37325   1.06343  -0.02069
C     0.42073   1.90269   0.23669
C     0.58455   3.34522  -0.02310
C     1.78817   3.78822  -0.80932
O    -0.23717   4.13957   0.42352
C    -0.79533   1.22432   0.85927
C    -0.15450  -0.10233   1.32223
C    -1.06258  -1.32394   1.21652
C    -1.75047  -1.37311  -0.11956
C    -2.11839  -2.61078  -0.81350
N    -1.82903  -3.77864  -0.18371
O    -2.67533  -2.62307  -1.93165
C    -2.12040  -0.18606  -0.67863
N    -1.85860   1.03582  -0.14743
C    -2.35230   2.22547  -0.82533
H     4.92849  -1.60781  -1.03492
H     4.78986  -1.82278   0.73333
H     3.89623  -2.90165  -0.36899
H     3.20961  -0.05304  -0.71775
H     2.71396   3.45387  -0.31730
H     1.78432   4.88208  -0.89682
H     1.77208   3.33176  -1.81164
H    -1.19747   1.80071   1.70279
H     0.19250   0.01582   2.36049
H    -1.79861  -1.24330   2.03686
H    -0.45745  -2.21413   1.41754
H    -2.08066  -4.64793  -0.64047
H    -1.41304  -3.81727   0.73753
H    -2.70264  -0.17978  -1.60287
H    -1.64034   2.61118  -1.57564
H    -3.29390   1.98443  -1.33507
H    -2.54458   3.02155  -0.09394
