37
Generated by autodE on: 2022-06-18. E = -967.332184 Ha. Imaginary frequency = -342.2 cm-1
C     2.88754  -3.14174  -0.09095
N     2.42829  -1.99135   0.65791
C     2.10510  -0.83377   0.04186
O     2.28984  -0.62198  -1.15968
N     1.50106   0.07155   0.93485
N     1.26049   1.22929   0.48369
C     0.37226   2.06142   0.55433
C     0.19496   3.50636   0.39335
C     0.99494   4.13714  -0.71250
O    -0.58636   4.11482   1.10878
C    -1.43278   0.96359   1.23757
C    -0.86128  -0.14260   1.82180
C    -1.03499  -1.51764   1.23478
C    -1.29507  -1.40603  -0.25382
C    -1.01178  -2.49349  -1.20628
N    -0.51848  -3.64795  -0.68586
O    -1.22978  -2.39611  -2.42891
C    -1.86824  -0.27328  -0.74407
N    -2.13667   0.83242   0.01764
C    -2.62490   2.03426  -0.64382
H     3.84221  -2.93016  -0.59790
H     3.03763  -3.97799   0.60279
H     2.15420  -3.44408  -0.85505
H     2.17349  -2.09582   1.63416
H     2.07011   3.98845  -0.52396
H     0.76083   5.20830  -0.76768
H     0.75861   3.64483  -1.66921
H    -1.64728   1.86836   1.80972
H    -0.43528  -0.03830   2.81944
H    -1.87902  -2.03051   1.74416
H    -0.14810  -2.12950   1.45316
H    -0.20529  -3.71556   0.27448
H    -0.21044  -4.36581  -1.33324
H    -2.13881  -0.20399  -1.79896
H    -3.44938   1.77282  -1.32037
H    -2.99947   2.74190   0.10637
H    -1.83535   2.53168  -1.23450
