54
Generated by autodE on: 2022-06-03. E = -1302.859976 Ha
C     5.00277  -3.28310   0.51261
O     4.07167  -2.56183  -0.30971
C     2.91824  -2.20233   0.25769
O     2.61693  -2.49148   1.39853
C     2.06980  -1.34598  -0.68699
C     0.57484  -1.50827  -0.38923
C    -0.33936  -1.46901  -1.65189
O    -0.39119  -0.06674  -1.94410
C    -0.94139   0.32714  -0.68253
C    -2.14217  -0.61127  -0.54453
C    -3.32726  -0.28107   0.24567
C    -4.56466  -0.92883   0.04482
C    -5.67811  -0.59898   0.81857
C    -5.58749   0.38683   1.80752
C    -4.37198   1.04882   2.00804
C    -3.25653   0.72472   1.23400
C    -1.75314  -1.75697  -1.15411
C    -2.35509  -3.11648  -1.21828
C     0.13089  -0.19587   0.32345
C     1.42575   0.67602   0.43869
C     1.96236   0.54589   1.82471
N     2.44057   0.43699   2.87683
C     1.14630   2.15910   0.16964
C     1.30598   2.68558  -1.11719
C     0.95053   4.01045  -1.38460
C     0.42516   4.81871  -0.37226
C     0.25999   4.29427   0.91332
C     0.62180   2.97205   1.18323
N     2.34425   0.08550  -0.52707
C     3.73130   0.51071  -0.48456
H     5.87921  -3.47364  -0.11707
H     5.28462  -2.67969   1.38747
H     4.56118  -4.23197   0.84917
H     2.32668  -1.64664  -1.71412
H     0.38879  -2.40768   0.20646
H     0.02020  -2.04857  -2.51051
H    -1.14805   1.40010  -0.65427
H    -4.66153  -1.67725  -0.74239
H    -6.62762  -1.11023   0.64162
H    -6.46120   0.64372   2.41098
H    -4.29070   1.82598   2.77193
H    -2.31645   1.25286   1.40720
H    -2.79757  -3.31201  -2.21113
H    -1.57351  -3.87987  -1.06760
H    -3.13896  -3.26690  -0.46305
H    -0.30944  -0.34806   1.31407
H     1.69441   2.04850  -1.91047
H     1.08248   4.41088  -2.39257
H     0.14596   5.85351  -0.58369
H    -0.15099   4.91610   1.71198
H     0.48657   2.57111   2.19031
H     4.26489   0.19159   0.43310
H     4.26601   0.09694  -1.35102
H     3.78426   1.60708  -0.54050
