26
Generated by autodE on: 2022-06-03. E = -578.022641 Ha
C     1.24469   2.28394   0.93399
C     1.30353   0.82275   0.66895
C     0.37866  -0.08329   0.28381
C    -1.05155   0.03296   0.01726
C    -1.66042  -0.81154  -0.93559
C    -3.02231  -0.70551  -1.22274
C    -3.81250   0.23780  -0.55787
C    -3.22680   1.07102   0.40216
C    -1.86549   0.96956   0.69050
C     1.20437  -1.37106  -0.00762
C     2.05561  -1.09891  -1.26725
C     2.96373  -0.19959  -0.87461
C     2.64631   0.05032   0.61742
O     2.20961  -1.26153   1.01527
H     0.29319   2.73191   0.61564
H     1.38353   2.50439   2.00746
H     2.06726   2.79351   0.40264
H    -1.05571  -1.54915  -1.46788
H    -3.46971  -1.36542  -1.97012
H    -4.87936   0.31745  -0.77927
H    -3.83845   1.80056   0.93883
H    -1.43025   1.60461   1.46318
H     0.66621  -2.32368   0.04417
H     1.87178  -1.52124  -2.25481
H     3.72887   0.31905  -1.45156
H     3.45625   0.43196   1.25006
