28
Generated by autodE on: 2022-06-03. E = -724.742689 Ha
C     4.22117   2.29669   0.18358
O     2.87462   1.82736   0.26178
C     2.66843   0.52818  -0.08199
O     3.58959  -0.19816  -0.44196
C     1.26479   0.22531   0.04999
N     0.70061  -0.97633  -0.15426
C     1.57441  -2.13323  -0.46013
C    -0.63996  -1.18625  -0.08527
C    -1.13987  -2.50698  -0.10705
N    -1.63941  -3.56497  -0.11650
C    -1.63639  -0.10283   0.06151
C    -1.61692   1.03835  -0.76539
C    -2.60906   2.01063  -0.64885
C    -3.63804   1.86388   0.28894
C    -3.67260   0.73033   1.10551
C    -2.68221  -0.24702   0.99194
H     4.87798   1.72297   0.85514
H     4.19538   3.34799   0.49507
H     4.60615   2.21982  -0.84468
H     0.60953   1.03924   0.34210
H     2.08524  -1.94841  -1.41067
H     0.96817  -3.03863  -0.53242
H     2.31920  -2.23925   0.33467
H    -0.82988   1.16025  -1.51173
H    -2.58317   2.88663  -1.30100
H    -4.41166   2.62984   0.37869
H    -4.47329   0.60494   1.83791
H    -2.71485  -1.13218   1.63084
