28
Generated by autodE on: 2022-07-27. E = -724.741798 Ha
C     1.63958  -4.60623   0.57261
O     1.14536  -3.75147  -0.46039
C     0.83241  -2.48336  -0.09169
O     0.94188  -2.09348   1.06685
C     0.44834  -1.71072  -1.24610
N     0.08477  -0.41302  -1.20629
C     0.30940   0.34500  -2.45844
C    -0.50500   0.20229  -0.14859
C    -1.26007  -0.58648   0.74983
N    -1.95216  -1.18012   1.47962
C    -0.45556   1.65374   0.07585
C    -1.56367   2.31486   0.64584
C    -1.52364   3.68641   0.88978
C    -0.37897   4.42682   0.57357
C     0.73170   3.77907   0.02300
C     0.70136   2.40536  -0.21597
H     0.90639  -4.70102   1.38781
H     1.80800  -5.58366   0.10441
H     2.58494  -4.22090   0.98425
H     0.61860  -2.13478  -2.23304
H     1.36680   0.62311  -2.54556
H    -0.32508   1.23505  -2.47799
H     0.04429  -0.31592  -3.29283
H    -2.46426   1.74699   0.88876
H    -2.39443   4.18197   1.32502
H    -0.34975   5.50195   0.76418
H     1.63690   4.34486  -0.20919
H     1.58956   1.91032  -0.61005
