72
Generated by autodE on: 2022-07-01. E = -1576.757084 Ha
C    -3.76709 -13.98318  27.43122
C    -4.26160 -14.66450  26.18407
O    -3.80799 -15.73846  25.83184
C    -5.38142 -13.95249  25.37467
C    -6.13481 -14.93746  24.43864
C    -6.47784 -16.31425  24.94257
O    -6.53101 -14.56755  23.34782
C    -6.46309 -13.55238  26.42624
C    -7.85806 -13.22023  25.89719
C    -7.90170 -11.97429  25.01343
C    -7.15610 -10.82446  25.69613
C    -5.73689 -10.43932  25.14188
C    -5.93835  -9.16860  24.26668
C    -5.02834  -8.10316  24.28575
C    -5.23324  -6.96086  23.50420
C    -6.35787  -6.86017  22.68441
C    -7.27296  -7.91728  22.65086
C    -7.06390  -9.05290  23.43270
C    -4.84630 -10.04084  26.34629
C    -3.51054 -10.43767  26.48567
C    -2.74118 -10.02819  27.58194
C    -3.29207  -9.20287  28.56191
C    -4.62038  -8.78242  28.42752
C    -5.38246  -9.19335  27.33384
C    -4.98202 -11.52619  24.32787
C    -4.74929 -12.84934  24.51812
C    -3.51759 -13.27187  23.65371
C    -3.58397 -14.56488  22.82878
C    -2.33649 -13.38106  24.56448
N    -1.38608 -13.41027  25.23106
N    -3.24775 -12.13078  22.78366
C    -4.13072 -11.01830  23.15787
C    -4.92823 -10.60532  21.93039
C    -5.98445 -11.40540  21.46751
C    -6.67372 -11.06125  20.30389
C    -6.30399  -9.92219  19.57836
C    -5.23234  -9.14019  20.01807
C    -4.54684  -9.48380  21.18693
H    -4.45557 -14.21866  28.25884
H    -2.77185 -14.36991  27.68183
H    -3.74134 -12.89124  27.32350
H    -7.44092 -16.61745  24.50933
H    -6.50605 -16.38307  26.03697
H    -5.70355 -17.01082  24.58572
H    -6.55824 -14.39523  27.12576
H    -6.06806 -12.71710  27.01620
H    -8.30133 -14.08407  25.37828
H    -8.49283 -13.04339  26.78192
H    -7.47783 -12.18782  24.02288
H    -8.95282 -11.69308  24.84440
H    -7.05842 -11.06027  26.76175
H    -7.76630  -9.91517  25.67166
H    -4.14157  -8.15645  24.91730
H    -4.50563  -6.14636  23.54193
H    -6.52022  -5.96868  22.07400
H    -8.15338  -7.86228  22.00638
H    -7.78613  -9.86632  23.37326
H    -3.04350 -11.07426  25.73912
H    -1.70471 -10.36489  27.66135
H    -2.69488  -8.88480  29.41969
H    -5.06708  -8.12729  29.17953
H    -6.40863  -8.83467  27.24328
H    -2.64207 -14.67260  22.27047
H    -3.70405 -15.45110  23.46190
H    -4.41744 -14.50506  22.11962
H    -3.43069 -12.41074  21.82361
H    -3.53916 -10.14997  23.48738
H    -6.27228 -12.29536  22.03015
H    -7.50516 -11.68235  19.96157
H    -6.84686  -9.64944  18.67013
H    -4.93295  -8.25367  19.45373
H    -3.71942  -8.86439  21.53912
