50
Generated by autodE on: 2022-07-01. E = -1079.899799 Ha
C     4.62674   2.12891   0.73502
C     3.61235   1.08780   0.36337
O     3.80410  -0.10192   0.52861
C     2.26559   1.58361  -0.22679
C     2.57595   2.20207  -1.62323
C     2.68463   1.24681  -2.77382
O     2.73805   3.39984  -1.74226
C     1.30253   0.49385  -0.34619
C     0.23713  -0.07530  -0.26055
C    -1.17298  -0.32392   0.05017
C    -1.32710  -1.10673   1.37086
C    -2.61454  -1.45694   1.80888
C    -2.79844  -2.14297   3.01002
C    -1.69494  -2.49728   3.79532
C    -0.41107  -2.15741   3.36517
C    -0.22870  -1.46599   2.16141
C    -1.85011  -1.11939  -1.07717
C    -3.11861  -0.79371  -1.57361
C    -3.71309  -1.57459  -2.57222
C    -3.04818  -2.68872  -3.08838
C    -1.78004  -3.02069  -2.59779
C    -1.18979  -2.24187  -1.60175
C    -1.76173   1.11924   0.21839
C    -0.95047   2.07490   1.11852
C     0.13957   2.96467   0.45330
C     1.62319   2.64065   0.72414
H     4.29977   2.62824   1.66212
H     4.71035   2.90796  -0.03592
H     5.59876   1.65099   0.91203
H     3.16049   1.74093  -3.63055
H     1.67243   0.91655  -3.05889
H     3.24315   0.34491  -2.47989
H    -3.48375  -1.19551   1.20185
H    -3.80871  -2.40558   3.33328
H    -1.83790  -3.03634   4.73483
H     0.45965  -2.42926   3.96695
H     0.77946  -1.20519   1.83585
H    -3.65943   0.06903  -1.18494
H    -4.70330  -1.30475  -2.94745
H    -3.51310  -3.29543  -3.86903
H    -1.24822  -3.88928  -2.99380
H    -0.20047  -2.50681  -1.22023
H    -2.77794   1.01740   0.62552
H    -1.86365   1.56350  -0.78397
H    -0.51368   1.51320   1.96125
H    -1.68429   2.75679   1.57490
H    -0.00913   3.98986   0.82671
H    -0.03435   3.02343  -0.63410
H     1.73611   2.28154   1.75915
H     2.21601   3.56061   0.63245
