72
Generated by autodE on: 2022-07-01. E = -1576.679481 Ha. Imaginary frequency = -241.4 cm-1
C    -3.45829 -14.62727  27.04789
C    -4.41308 -15.12530  25.99962
O    -4.23310 -16.18083  25.41912
C    -5.63778 -14.23485  25.67996
C    -6.70237 -15.02266  24.89113
C    -7.16838 -16.34436  25.44350
O    -7.20174 -14.56322  23.87908
C    -6.29144 -13.77837  27.03172
C    -7.69203 -13.16278  26.95222
C    -7.88369 -11.92339  26.06590
C    -6.89068 -10.77692  26.31961
C    -5.80783 -10.50111  25.19865
C    -6.53816  -9.90645  23.96682
C    -6.64309  -8.53139  23.71375
C    -7.40425  -8.04542  22.64533
C    -8.08245  -8.92343  21.79832
C    -7.96044 -10.29786  22.01547
C    -7.19083 -10.77894  23.07631
C    -4.76073  -9.58488  25.85460
C    -3.43351 -10.00636  26.02649
C    -2.49084  -9.20442  26.67687
C    -2.85896  -7.95867  27.18865
C    -4.18808  -7.54222  27.06802
C    -5.12700  -8.35037  26.42234
C    -5.19931 -11.80303  24.80447
C    -5.17702 -13.04067  24.92444
C    -3.87816 -13.77878  22.99118
C    -4.44354 -15.00650  22.32995
C    -2.69855 -13.90618  23.76933
N    -1.71695 -14.01378  24.39542
N    -4.06053 -12.57471  22.37418
C    -3.72329 -11.39512  22.91306
C    -3.90368 -10.12718  22.21992
C    -4.67198  -9.98205  21.04634
C    -4.80659  -8.73750  20.43556
C    -4.18005  -7.60748  20.97518
C    -3.40523  -7.73942  22.13189
C    -3.26468  -8.98376  22.74411
H    -3.88196 -14.84853  28.04152
H    -2.49873 -15.14761  26.94508
H    -3.31681 -13.53975  26.98308
H    -8.25307 -16.43247  25.28860
H    -6.91769 -16.48754  26.50169
H    -6.67720 -17.14435  24.86763
H    -6.33902 -14.64910  27.70396
H    -5.59696 -13.06435  27.49383
H    -8.41736 -13.93171  26.63705
H    -7.96842 -12.90339  27.98870
H    -7.86329 -12.22588  25.01314
H    -8.90722 -11.55500  26.23985
H    -6.34202 -10.96051  27.25592
H    -7.43580  -9.83391  26.46569
H    -6.11392  -7.81318  24.33484
H    -7.45453  -6.96745  22.47363
H    -8.67834  -8.54260  20.96553
H    -8.45476 -11.00708  21.34683
H    -7.07834 -11.85548  23.19580
H    -3.12847 -10.98424  25.65679
H    -1.46412  -9.56268  26.78466
H    -2.12417  -7.32659  27.69285
H    -4.50338  -6.58385  27.48783
H    -6.16173  -8.01202  26.38046
H    -3.79369 -15.36164  21.51029
H    -4.54258 -15.81880  23.06009
H    -5.44013 -14.79072  21.92077
H    -4.77575 -12.57484  21.64684
H    -2.92692 -11.43435  23.65215
H    -5.18070 -10.84077  20.60477
H    -5.41459  -8.64645  19.53268
H    -4.29484  -6.63310  20.49498
H    -2.90579  -6.86748  22.56096
H    -2.65900  -9.08059  23.64581
