22
Generated by autodE on: 2022-06-17. E = -605.064416 Ha
C    -1.03228   1.75074   1.38234
N    -1.35918   0.65171   0.45303
N    -2.65822   0.63364   0.16926
C    -3.10737  -0.05667  -0.85491
N    -3.66728  -0.56575  -1.75451
C    -0.41649  -0.19284   0.03067
C    -0.79916  -1.42727  -0.56940
N    -1.00138  -2.48926  -1.00265
C     1.03072   0.04115   0.19751
C     1.61116   1.28537  -0.11393
C     2.98646   1.46748   0.02387
C     3.79688   0.41551   0.46327
C     3.22819  -0.82851   0.75652
C     1.85462  -1.02036   0.61826
H    -0.10870   1.52863   1.92252
H    -1.87858   1.82788   2.07353
H    -0.93697   2.68591   0.81650
H     0.99109   2.10304  -0.48305
H     3.42888   2.43473  -0.22358
H     4.87392   0.56307   0.56937
H     3.85738  -1.65402   1.09576
H     1.41295  -1.99219   0.84772
