22
Generated by autodE on: 2022-07-27. E = -605.064439 Ha
C     0.01028  -1.66139  -1.82540
N    -0.82662  -1.12714  -0.73390
N    -2.05728  -1.63009  -0.78231
C    -3.03446  -1.06101  -0.11261
N    -4.02376  -0.64962   0.37120
C    -0.32416  -0.28385   0.17052
C    -1.02289  -0.07854   1.39573
N    -1.47637   0.09960   2.45352
C     0.95969   0.42525   0.01350
C     1.30637   1.05519  -1.19720
C     2.51128   1.74827  -1.30320
C     3.37741   1.82986  -0.20792
C     3.03020   1.22171   1.00313
C     1.82631   0.52930   1.11871
H     1.06866  -1.58582  -1.56437
H    -0.28514  -2.70880  -1.95099
H    -0.20376  -1.10928  -2.74917
H     0.62553   1.02276  -2.04832
H     2.76931   2.23753  -2.24478
H     4.31950   2.37551  -0.29570
H     3.70071   1.28643   1.86257
H     1.55721   0.05548   2.06480
