58
Generated by autodE on: 2022-12-30. E = -1230.277840 Ha
C     4.42472   0.99546   1.35229
N     3.30397   0.07777   1.35391
C     2.05193   0.49538   1.57941
O     1.77780   1.66674   1.86414
C     0.96840  -0.62667   1.56783
O     1.14669  -1.33119   2.81855
C     1.04361  -0.59034   4.02186
C    -0.47517  -0.06966   1.49842
C    -1.16136   0.00451   0.13307
C    -0.58773   1.00760  -0.86758
C     0.88060   0.84083  -1.26679
C     1.34587  -0.51458  -1.84612
C     2.81511  -0.32007  -2.28624
C     0.48134  -0.82278  -3.08760
C     1.31847  -1.67083  -0.84272
C     1.21378  -1.68748   0.51687
C     1.31905  -3.11362   0.97160
C     2.56431  -3.39095   1.83555
C     2.40875  -4.41233   2.91598
O     3.62504  -2.84017   1.59102
N     1.46183  -3.92945  -0.22167
C     1.48904  -3.11205  -1.22489
C     1.64649  -3.67691  -2.59526
C     0.52733  -4.17588  -3.27857
C     0.66888  -4.73487  -4.55032
C     1.93156  -4.80889  -5.14824
C     3.05317  -4.33296  -4.46274
C     2.91252  -3.77239  -3.18992
H     5.33686   0.44005   1.10109
H     4.55945   1.47153   2.33711
H     4.27926   1.79439   0.60756
H     3.47034  -0.91295   1.16821
H     1.82472   0.18433   4.10720
H     0.05685  -0.11209   4.13543
H     1.17820  -1.31353   4.83841
H    -1.06887  -0.74499   2.13287
H    -0.48373   0.92060   1.97593
H    -1.19669  -0.99926  -0.31816
H    -2.21207   0.28090   0.32206
H    -1.21533   0.98170  -1.77372
H    -0.70002   2.02453  -0.45262
H     1.09364   1.58928  -2.04753
H     1.53108   1.12766  -0.43605
H     2.87708   0.47639  -3.04489
H     3.23526  -1.23506  -2.72349
H     3.43960  -0.02855  -1.42826
H    -0.52043  -1.18497  -2.81199
H     0.35865   0.09824  -3.67874
H     0.94444  -1.57173  -3.73997
H     0.42751  -3.42654   1.53520
H     1.68274  -4.03467   3.65430
H     1.98376  -5.33568   2.49047
H     3.37149  -4.61795   3.40118
H    -0.45862  -4.11021  -2.81346
H    -0.20997  -5.11461  -5.07679
H     2.04174  -5.24392  -6.14438
H     4.04413  -4.40161  -4.91766
H     3.79022  -3.41138  -2.65013
