21
Generated by autodE on: 2022-12-30. E = -516.643247 Ha
C     4.74257  -0.37806   0.21309
C     3.23923  -0.20842   0.26969
O     2.69957   0.27198   1.29109
C     2.50623  -0.61913  -0.88115
N     1.17740  -0.47048  -0.83906
C     0.05271  -0.26220  -0.60239
C    -1.29860   0.00466  -0.29155
C    -2.33296  -0.31883  -1.19596
C    -3.65149  -0.03755  -0.84690
C    -3.95025   0.55706   0.38481
C    -2.92106   0.87533   1.27922
C    -1.59506   0.60548   0.95324
H     5.06504  -1.02000   1.04927
H     5.22217   0.60408   0.35729
H     5.09181  -0.81442  -0.73294
H     2.94439  -1.04107  -1.78359
H    -2.09203  -0.78339  -2.15310
H    -4.45479  -0.28588  -1.54370
H    -4.98778   0.77277   0.64842
H    -3.15336   1.33938   2.24010
H    -0.78118   0.84741   1.63869
