39
Generated by autodE on: 2022-06-18. E = -918.270814 Ha
C     4.35862   0.89369  -1.76723
O     3.50304   0.67848  -0.63412
C     2.20014   0.88407  -0.81378
O     1.72466   1.31289  -1.84812
C     1.40260   0.54371   0.43100
N     0.11461   1.23679   0.40959
C    -0.96730   0.27795   0.56487
C    -1.47166   0.30770   1.95562
N    -1.86095   0.37710   3.04639
C    -2.13938   0.67116  -0.35156
O    -2.02548   1.45603  -1.26525
O    -3.25183   0.02802  -0.03515
C    -4.40262   0.26220  -0.86871
C    -0.38125  -1.14505   0.16610
C    -1.11782  -2.31147   0.82478
C    -0.49125  -1.30869  -1.36003
C     1.12061  -0.99539   0.62901
C     1.31092  -1.31835   2.12169
C     2.07110  -1.90706  -0.15691
H     5.37480   0.66626  -1.42591
H     4.29359   1.93823  -2.10316
H     4.07458   0.22407  -2.59186
H     2.02209   0.88219   1.27449
H    -0.01452   1.70085  -0.49131
H    -5.20584  -0.35198  -0.44770
H    -4.67614   1.32594  -0.84270
H    -4.18564  -0.04240  -1.90202
H    -1.16618  -2.22943   1.91794
H    -2.14790  -2.37182   0.44459
H    -0.61115  -3.25627   0.57636
H    -0.01491  -0.48662  -1.90881
H    -0.02111  -2.25049  -1.67002
H    -1.54609  -1.36673  -1.66602
H     1.11706  -2.38068   2.32552
H     2.35342  -1.10813   2.40428
H     0.66387  -0.71902   2.77641
H     3.09320  -1.81485   0.23608
H     2.10496  -1.68158  -1.23090
H     1.75986  -2.95653  -0.04049
