18
Generated by autodE on: 2022-06-18. E = -235.968071 Ha
C    -1.18609   1.56020   0.21085
C    -0.64156   0.18830  -0.10693
C    -1.70304  -0.71221  -0.69187
C     0.64154  -0.18833   0.10701
C     1.70300   0.71212   0.69212
C     1.18615  -1.56009  -0.21115
H    -0.44878   2.25289   0.63368
H    -1.60449   2.02700  -0.69896
H    -2.02568   1.48393   0.92505
H    -2.55280  -0.80793   0.00778
H    -2.11898  -0.26647  -1.61335
H    -1.35535  -1.72299  -0.93655
H     2.55267   0.80831  -0.00757
H     2.11910   0.26599   1.61334
H     1.35517   1.72272   0.93735
H     0.44879  -2.25284  -0.63380
H     2.02537  -1.48348  -0.92575
H     1.60512  -2.02699   0.69835
