52
Generated by autodE on: 2022-06-23. E = -1225.925844 Ha
C     2.39601  -1.60501   3.39556
N     1.74137  -0.97237   2.27095
C     2.36232  -0.18307   1.38478
O     3.55831   0.11773   1.43388
C     1.44710   0.31407   0.22998
C     2.02591   1.65423  -0.26844
O     1.55613   2.74615  -0.02398
O     3.10970   1.48544  -1.02397
C     3.73706   2.67172  -1.53354
C     1.41588  -0.71510  -0.96902
C     2.46276  -1.82097  -0.92484
C    -0.03265  -1.22505  -0.98324
C    -0.50835  -1.76529  -2.32361
C    -0.85754  -0.06451  -0.36758
C    -1.03277   1.13104  -1.32597
O    -0.35043   1.34705  -2.31005
O    -1.92369   2.01157  -0.86433
C    -1.99788   3.27542  -1.54215
C    -2.18138  -0.59535   0.16483
C    -3.32945  -0.58236  -0.64086
C    -4.51890  -1.16933  -0.20088
C    -4.57957  -1.77980   1.05490
C    -3.43752  -1.80694   1.86085
C    -2.24788  -1.22487   1.41582
N     0.06321   0.39854   0.67817
C    -0.34685   1.40960   1.64044
H     1.93925  -1.28850   4.34636
H     3.45468  -1.31795   3.39783
H     2.32583  -2.70194   3.32496
H     0.74621  -1.10910   2.11364
H     4.07126   3.31342  -0.70572
H     4.59689   2.32966  -2.12062
H     3.03684   3.22963  -2.17155
H     1.57522  -0.13883  -1.88641
H     3.47922  -1.40389  -0.89472
H     2.38146  -2.44562  -1.82717
H     2.33101  -2.47440  -0.04950
H    -0.10977  -2.03160  -0.23659
H     0.11036  -2.62394  -2.62537
H    -1.54991  -2.11566  -2.25984
H    -0.44726  -1.00490  -3.11432
H    -2.76093   3.85693  -1.01248
H    -2.28819   3.13198  -2.59254
H    -1.02537   3.78602  -1.49481
H    -3.30084  -0.11263  -1.62569
H    -5.40149  -1.14798  -0.84455
H    -5.51037  -2.23411   1.40246
H    -3.46947  -2.28570   2.84242
H    -1.36198  -1.26640   2.05030
H     0.45517   1.54469   2.37935
H    -0.56622   2.39259   1.19864
H    -1.24222   1.06537   2.17820
