40
Generated by autodE on: 2022-06-23. E = -1068.565417 Ha
C    -3.08587  -1.55586  -2.87369
N    -2.88858  -0.85987  -1.62230
C    -1.66543  -0.73724  -1.06549
O    -0.65025  -1.19806  -1.63918
C    -1.58332  -0.07192   0.24090
C    -2.68978   0.60522   0.84844
O    -3.87037   0.53899   0.47920
O    -2.33676   1.40973   1.88408
C    -3.39817   2.07076   2.57499
N    -0.32344  -0.09650   0.86681
C    -0.26031  -0.60610   2.25281
C     0.78173   0.10794   0.17788
C     0.72128   0.93728  -1.07917
O    -0.05815   1.84734  -1.26992
O     1.69935   0.60572  -1.91550
C     1.76383   1.33702  -3.14902
C     2.09596  -0.38131   0.62545
C     2.28539  -1.74307   0.92195
C     3.53923  -2.20363   1.32281
C     4.61127  -1.31295   1.43963
C     4.43092   0.04136   1.13698
C     3.18438   0.50547   0.71983
H    -2.37262  -1.20389  -3.63473
H    -2.95324  -2.64725  -2.77283
H    -4.10596  -1.36415  -3.23073
H    -3.67681  -0.51081  -1.07831
H    -2.92349   2.63889   3.38437
H    -3.93722   2.75606   1.90402
H    -4.11050   1.34466   2.99480
H    -0.27235  -1.70314   2.24012
H     0.64740  -0.24240   2.74560
H    -1.14142  -0.24370   2.78701
H     1.90668   2.40906  -2.95312
H     2.62252   0.93020  -3.69451
H     0.83829   1.18606  -3.72317
H     1.45481  -2.44163   0.81057
H     3.68064  -3.26451   1.54051
H     5.59092  -1.67558   1.75904
H     5.26699   0.73878   1.22251
H     3.04604   1.56146   0.47855
