57
Generated by autodE on: 2022-06-04. E = -1262.661770 Ha
C    -4.28890  -2.29997   0.35943
N    -2.90312  -1.91980   0.17377
C    -2.39407  -1.63686  -1.03385
O    -3.05984  -1.72184  -2.07547
C    -0.93774  -1.17652  -1.09200
N    -0.17284  -1.48487   0.10485
C     0.16773  -2.90530   0.21699
C     0.93446  -0.52683   0.23794
C     2.15065  -1.10740  -0.55620
C     3.31723  -1.70895   0.16958
O     2.07275  -1.13851  -1.77241
C     1.28494  -0.29074   1.71964
O     2.28127   0.38313   2.03791
N     0.46380  -0.81765   2.62579
C     0.64235  -0.60453   4.04851
C     0.42962   0.80708  -0.45868
C     1.59712   1.54758  -1.14116
O     1.54054   2.02614  -2.27825
N     2.69064   1.70758  -0.37262
C     3.88490   2.34212  -0.89023
C    -0.25410   1.80295   0.54777
C    -0.61242   3.11352  -0.18683
C    -1.80183   2.68925  -1.09423
C    -1.97472   1.19039  -0.76477
C    -1.65093   1.19415   0.73675
C    -0.80175   0.35713  -1.37519
C    -0.71336   0.50492  -2.89645
H    -4.43496  -2.62405   1.39730
H    -4.97029  -1.45785   0.15229
H    -4.55870  -3.12729  -0.31412
H    -2.29699  -1.79820   0.97902
H    -0.51501  -1.71336  -1.96029
H     0.73120  -3.28017  -0.65832
H    -0.75552  -3.49428   0.29424
H     0.75842  -3.08975   1.12324
H     3.95974  -0.89799   0.54509
H     3.88924  -2.33860  -0.52409
H     2.99422  -2.29036   1.04482
H    -0.35435  -1.30580   2.27175
H     0.49541   0.45495   4.31427
H    -0.08957  -1.21308   4.59304
H     1.65604  -0.89721   4.36008
H     2.70404   1.30801   0.57417
H     4.26697   1.81102  -1.77762
H     4.65832   2.32855  -0.11160
H     3.69521   3.38791  -1.18152
H     0.34244   1.97029   1.45131
H     0.22456   3.54481  -0.75006
H    -0.92467   3.86159   0.55634
H    -2.72039   3.22908  -0.82058
H    -1.61861   2.88183  -2.15828
H    -2.95761   0.80062  -1.05821
H    -2.31513   1.85591   1.31303
H    -1.65012   0.20717   1.20458
H    -0.66020   1.54286  -3.23239
H    -1.61171   0.03866  -3.32916
H     0.16572  -0.02136  -3.28870
