27
Generated by autodE on: 2022-06-04. E = -520.325067 Ha
C     3.41884  -1.47767   0.43558
N     2.07603  -1.15154   0.00361
C     1.51270   0.04977   0.27865
O     2.15063   0.92197   0.89762
C     0.12838   0.23723  -0.19881
C    -0.77666   1.14038   0.26185
C    -0.66989   2.17906   1.32220
C    -2.10452   0.80482  -0.39803
C    -2.58155  -0.52547   0.27439
C    -1.56004  -1.57085  -0.25890
C    -0.61846  -0.70036  -1.14917
C    -1.63094   0.28253  -1.76745
H     3.50784  -1.46070   1.53451
H     4.15295  -0.76239   0.03160
H     3.67410  -2.48303   0.07837
H     1.53091  -1.85937  -0.47405
H    -0.87180   3.17868   0.89829
H     0.31661   2.19072   1.79881
H    -1.44568   2.01030   2.08960
H    -2.84924   1.61149  -0.38192
H    -3.60647  -0.76233  -0.04830
H    -2.58598  -0.44602   1.37122
H    -1.00276  -2.07752   0.54196
H    -2.05621  -2.34348  -0.86554
H     0.00483  -1.27095  -1.84988
H    -2.42609  -0.21539  -2.34407
H    -1.15420   1.05931  -2.38362
