30
Generated by autodE on: 2022-06-04. E = -742.281230 Ha
C     4.44937  -1.85409   0.87050
N     3.13712  -1.25636   1.00549
C     2.52227  -0.67495  -0.04269
O     3.03144  -0.60722  -1.16720
C     1.18246  -0.13526   0.31132
N     0.38386   0.51020  -0.49345
C     0.78017   0.88244  -1.86878
C    -0.97379   0.65975  -0.12179
C    -1.63276   1.91687  -0.25980
C    -0.83286   3.17060  -0.56782
O    -2.86972   2.06473  -0.07628
C    -1.62030  -0.58494   0.35185
O    -0.99020  -1.65192   0.51935
N    -2.95029  -0.51449   0.56683
C    -3.71650  -1.67158   0.96803
H     4.43154  -2.69469   0.15807
H     5.18014  -1.11666   0.50321
H     4.77417  -2.22372   1.84994
H     2.66466  -1.29568   1.90343
H     0.82796  -0.28607   1.32926
H    -0.03094   1.46080  -2.31519
H     1.71266   1.45557  -1.85625
H     0.92903  -0.03558  -2.45062
H    -1.22253   3.97578   0.07250
H    -1.00771   3.47548  -1.61256
H     0.24805   3.07780  -0.40437
H    -3.38342   0.39139   0.36509
H    -4.73761  -1.35448   1.21681
H    -3.27389  -2.15617   1.85292
H    -3.77542  -2.43222   0.16993
