30
Generated by autodE on: 2022-07-27. E = -742.282061 Ha
C    -3.48490  -1.32230  -3.39787
N    -2.40650  -0.65406  -2.69897
C    -2.07539  -0.99372  -1.43684
O    -2.66008  -1.88157  -0.80601
C    -0.94401  -0.18855  -0.90778
N    -0.39122  -0.32312   0.26743
C    -0.96315  -1.20247   1.31100
C     0.86358   0.27433   0.51188
C     1.92780   0.11548  -0.43595
C     1.79587  -0.82048  -1.62687
O     3.04167   0.67722  -0.28365
C     0.95440   1.05914   1.75844
O    -0.04175   1.25314   2.48725
N     2.16522   1.57336   2.06512
C     2.34070   2.46041   3.19226
H    -4.44004  -1.19503  -2.86390
H    -3.57678  -0.89320  -4.40227
H    -3.28904  -2.40283  -3.48548
H    -1.89154   0.08142  -3.17377
H    -0.51367   0.57383  -1.55705
H    -0.89328  -2.23906   0.95916
H    -0.37815  -1.07330   2.22209
H    -2.01386  -0.95008   1.48497
H     1.05091  -1.61817  -1.50196
H     1.53936  -0.25393  -2.53608
H     2.78466  -1.27302  -1.78792
H     2.88698   1.45229   1.34967
H     2.04255   1.97531   4.13544
H     1.74287   3.38353   3.09361
H     3.39982   2.73913   3.26513
