57
Generated by autodE on: 2022-06-04. E = -1262.594016 Ha. Imaginary frequency = -415.8 cm-1
C    -3.36983  -3.13054  -3.32912
N    -2.13790  -2.66512  -2.72246
C    -2.08517  -2.28969  -1.43059
O    -3.05379  -2.38954  -0.66695
C    -0.77559  -1.69040  -1.01286
N    -0.19660  -2.06577   0.16711
C    -0.89746  -2.91246   1.14584
C     1.05440  -1.51203   0.43011
C     2.14376  -1.72950  -0.52629
C     1.99056  -2.69577  -1.68361
O     3.25584  -1.18637  -0.39973
C     1.33349  -1.05016   1.82353
O     0.47109  -1.07019   2.71956
N     2.56828  -0.55347   2.05259
C     2.87390   0.17157   3.26504
C     0.12143   0.78982  -0.33091
C     1.43571   1.14456  -0.89825
O     1.76454   0.85942  -2.06491
N     2.27289   1.80641  -0.05855
C     3.66298   2.07323  -0.35786
C    -0.44058   1.41400   0.93565
C    -1.06718   2.76841   0.45788
C    -2.31034   2.30643  -0.35399
C    -2.22598   0.75358  -0.26130
C    -1.71662   0.58720   1.17277
C    -1.00116   0.33607  -1.09407
C    -1.11353   0.51437  -2.59650
H    -3.16467  -3.43452  -4.36252
H    -4.13716  -2.33883  -3.33510
H    -3.77534  -3.99198  -2.77750
H    -1.32889  -2.49721  -3.31205
H    -0.06778  -1.56524  -1.82652
H    -1.28576  -3.79747   0.62465
H    -1.73624  -2.39859   1.62980
H    -0.18040  -3.23548   1.90304
H     1.15799  -3.40216  -1.58686
H     1.87035  -2.12207  -2.61655
H     2.93740  -3.24867  -1.76504
H     3.18612  -0.50256   1.23952
H     3.94008   0.43256   3.26275
H     2.28667   1.10351   3.34789
H     2.66263  -0.43487   4.15904
H     1.97913   1.92294   0.90385
H     4.31200   1.63977   0.41930
H     3.86698   3.15555  -0.41143
H     3.91643   1.62104  -1.32355
H     0.24094   1.51068   1.78866
H    -1.35370   3.36720   1.33565
H    -0.35791   3.36110  -0.13642
H    -3.24341   2.65185   0.11533
H    -2.30657   2.66810  -1.39112
H    -3.15032   0.23032  -0.53338
H    -2.37615   1.05387   1.91972
H    -1.51695  -0.44197   1.47016
H    -0.97849   1.57308  -2.86559
H    -2.11129   0.20369  -2.94004
H    -0.35826  -0.05308  -3.15263
