20
Generated by autodE on: 2022-06-20. E = -457.715332 Ha
C    -3.14810  -0.38914   0.18056
N    -1.81498   0.18951   0.15029
C    -1.66811   1.57913   0.05630
C    -0.47105   2.17466  -0.06372
C     0.82924   1.41065  -0.11137
C     0.56972  -0.08489  -0.02986
C     1.67481  -1.05624  -0.06925
N     2.92277  -0.53484  -0.17846
O     1.50843  -2.29173  -0.00919
C    -0.69390  -0.58218   0.08716
H    -3.07229  -1.46619   0.37566
H    -3.67479  -0.24126  -0.77755
H    -3.75038   0.06927   0.98005
H    -2.60212   2.14281   0.09130
H    -0.43695   3.26484  -0.12471
H     1.38685   1.66620  -1.03568
H     1.49532   1.74204   0.71186
H     3.71321  -1.16957  -0.20358
H     3.10000   0.46080  -0.21474
H    -0.85219  -1.66037   0.14115
