24
Generated by autodE on: 2022-06-20. E = -572.272456 Ha
C     3.15621   1.11816  -1.19602
O     2.32702   0.28956  -0.38225
C     0.98072   0.41161  -0.56837
O     0.51065   1.22204  -1.36913
C     0.23947  -0.49240   0.25329
C     0.86292  -1.47643   1.03299
N     1.37286  -2.30452   1.68860
N    -1.18538  -0.50725   0.16060
C    -1.80091  -1.78023  -0.25234
C    -1.90346   0.57941   0.31246
C    -1.31650   1.81731   0.87951
C    -3.34714   0.59343  -0.06217
H     4.19013   0.89017  -0.90793
H     2.94804   2.18447  -1.01943
H     3.01241   0.89856  -2.26523
H    -2.81108  -1.87722   0.15834
H    -1.18087  -2.59950   0.12906
H    -1.82987  -1.83635  -1.35022
H    -0.43512   1.60194   1.49902
H    -2.08569   2.34698   1.45976
H    -0.99531   2.48023   0.05868
H    -3.67962   1.62811  -0.21560
H    -3.55391   0.00549  -0.96615
H    -3.94611   0.17070   0.76418
