24
Generated by autodE on: 2022-07-27. E = -572.271990 Ha
C    -0.96449   3.61660  -0.13905
O    -1.06522   2.21895  -0.40842
C    -0.20754   1.40732   0.27343
O     0.58817   1.85446   1.10209
C    -0.35551   0.03377  -0.08763
C    -1.25718  -0.40212  -1.06511
N    -2.00106  -0.79237  -1.88422
N     0.43275  -0.94322   0.59960
C     0.32016  -0.98941   2.07049
C     1.14665  -1.84065  -0.03642
C     1.34358  -1.75396  -1.50544
C     1.76911  -2.96633   0.71569
H    -1.17664   3.83394   0.91897
H     0.03751   3.99886  -0.38783
H    -1.71450   4.10392  -0.77454
H    -0.28848  -1.85729   2.36207
H     1.31421  -1.06955   2.52664
H    -0.16489  -0.07316   2.41259
H     0.52714  -2.28230  -2.03010
H     2.28687  -2.24466  -1.78044
H     1.33016  -0.70998  -1.84963
H     2.62901  -2.59260   1.29930
H     1.06569  -3.42020   1.42913
H     2.13323  -3.73281   0.02168
