44
Generated by autodE on: 2022-06-20. E = -1029.972152 Ha. Imaginary frequency = -467.3 cm-1
C    -2.29837   3.56801  -0.32068
O    -2.43338   2.21359  -0.73887
C    -1.64673   1.29085  -0.08758
O    -0.86734   1.64925   0.80004
C    -1.86282  -0.03715  -0.56488
C    -2.92287  -0.25650  -1.46905
N    -3.79859  -0.45021  -2.22476
C     1.14959  -0.07888  -1.56891
C     1.32336  -1.34747  -0.98134
C     2.19533  -1.41795   0.26940
C     2.21706  -0.10212   1.01349
C     2.68936   0.00644   2.41587
N     3.13942  -1.13479   2.98346
O     2.67761   1.07913   3.04257
C     1.85509   1.04117   0.39442
N     1.40133   1.06735  -0.91921
C     1.08273   2.34305  -1.56197
C    -0.50258  -2.06127  -0.68316
C    -0.95019  -2.28482  -2.11810
C    -0.21053  -3.38624  -0.00382
N    -1.25779  -1.16358   0.06171
C    -1.12189  -1.14038   1.51512
H    -2.51858   3.68082   0.75214
H    -1.28463   3.95025  -0.51761
H    -3.02598   4.14267  -0.90830
H     0.78370   0.03000  -2.59049
H     1.54512  -2.12234  -1.71853
H     1.84855  -2.22509   0.92921
H     3.22681  -1.70109  -0.01594
H     3.18602  -2.01534   2.48595
H     3.47605  -1.10110   3.94005
H     1.90409   2.00494   0.89562
H     1.74248   2.50314  -2.42716
H     1.22801   3.15647  -0.84409
H     0.03959   2.33963  -1.90550
H    -1.94873  -2.74859  -2.11979
H    -0.25666  -2.97473  -2.61652
H    -1.00616  -1.36178  -2.70451
H     0.24706  -3.29506   0.98676
H    -1.16098  -3.93270   0.11520
H     0.45223  -3.99086  -0.63609
H    -0.13402  -0.76547   1.83682
H    -1.88837  -0.47929   1.93226
H    -1.27384  -2.14231   1.93626
