51
Generated by autodE on: 2022-06-04. E = -1209.342039 Ha
C     0.42929   0.03500   3.96864
C    -0.05668   0.52571   2.63442
O    -0.68458   1.56613   2.52798
C     0.33258  -0.29822   1.39335
C     1.66912   0.35418   0.97052
C     2.83993  -0.41022   0.86521
C     4.04962   0.17704   0.48253
C     4.11748   1.54746   0.21998
C     2.96552   2.32666   0.35952
C     1.75752   1.73661   0.73351
N     0.53743  -1.70351   1.74793
C     0.40361  -2.45173   0.50527
C    -0.70845  -1.79535  -0.34028
C    -0.44795  -2.03633  -1.83173
C    -1.36164  -1.50478  -2.90878
O     0.49231  -2.74548  -2.16322
C    -2.11801  -2.37031   0.11463
C    -3.23845  -1.70532  -0.66400
C    -3.30590  -0.45988  -0.18155
C    -2.24534  -0.38994   0.90430
O    -2.24913  -1.73957   1.39525
C    -0.80566  -0.30368   0.23358
C    -0.66296   0.83182  -0.75483
C     0.34693   0.81449  -1.73161
C     0.51778   1.87749  -2.61792
C    -0.31057   3.00061  -2.53513
C    -1.30480   3.04469  -1.55458
C    -1.47759   1.97163  -0.67512
H     1.47637  -0.29337   3.91148
H     0.30803   0.82974   4.71606
H    -0.16867  -0.83932   4.27548
H     2.80968  -1.47327   1.09437
H     4.94463  -0.44398   0.39699
H     5.06288   2.00702  -0.07799
H     3.00312   3.40280   0.17502
H     0.87440   2.36363   0.84213
H    -0.24682  -1.97263   2.33828
H     1.34124  -2.41749  -0.06073
H     0.19117  -3.50815   0.71929
H    -0.76109  -1.32877  -3.81156
H    -1.91089  -0.60222  -2.63247
H    -2.09332  -2.29554  -3.14479
H    -2.12993  -3.46251   0.19879
H    -3.79495  -2.15386  -1.48456
H    -3.93329   0.36682  -0.50970
H    -2.42259   0.32054   1.71189
H     1.03248  -0.03142  -1.78918
H     1.31025   1.83200  -3.36851
H    -0.17772   3.83738  -3.22487
H    -1.95268   3.92031  -1.46875
H    -2.24412   2.04701   0.09545
