28
Generated by autodE on: 2022-06-04. E = -691.408451 Ha
C    -2.83376   1.94593  -1.17000
C    -1.45786   1.75352  -0.57708
O    -0.59119   2.61746  -0.71928
C    -1.24955   0.50315   0.15724
C    -0.13520  -0.24562   0.40972
C     1.28800  -0.09972   0.13352
C     1.91902   1.15541  -0.00750
C     3.28525   1.23642  -0.27324
C     4.05163   0.07433  -0.41130
C     3.44220  -1.17717  -0.27128
C     2.08012  -1.26512   0.00985
C    -0.70760  -1.56999   1.00208
C    -1.40736  -2.31444  -0.15223
C    -2.49810  -1.58624  -0.40850
C    -2.43154  -0.41206   0.59177
O    -1.83319  -1.05745   1.72379
H    -3.15357   1.05519  -1.73384
H    -2.83436   2.82702  -1.82464
H    -3.56796   2.09616  -0.36089
H     1.32012   2.05757   0.09082
H     3.75714   2.21688  -0.37206
H     5.12150   0.14309  -0.62175
H     4.03265  -2.09012  -0.37646
H     1.62465  -2.25114   0.11542
H    -0.03326  -2.14313   1.64530
H    -1.01726  -3.19838  -0.65519
H    -3.25806  -1.71119  -1.17901
H    -3.37076   0.08651   0.84976
