23
Generated by autodE on: 2022-06-04. E = -517.879591 Ha
C    -1.06397   2.55927  -0.81702
N    -1.54315   1.42186  -0.40633
C    -0.97651   0.21896  -0.05033
C    -1.97106  -0.75588   0.27820
C    -1.56593  -2.12991   0.75787
O    -3.19712  -0.47911   0.18903
C     0.48513   0.04426  -0.02988
C     1.32235   0.97124   0.62637
C     2.70625   0.79272   0.65767
C     3.28982  -0.31895   0.03994
C     2.47417  -1.24683  -0.61485
C     1.09038  -1.06307  -0.65713
H    -1.76890   3.35687  -1.04984
H     0.01027   2.69809  -0.93562
H    -2.57100   1.32531  -0.32914
H    -2.32259  -2.48602   1.47239
H    -1.55701  -2.83388  -0.09127
H    -0.57302  -2.15129   1.22535
H     0.88284   1.83271   1.13409
H     3.33283   1.52182   1.17748
H     4.37297  -0.45931   0.06712
H     2.91851  -2.11553  -1.10704
H     0.46666  -1.78188  -1.19157
