51
Generated by autodE on: 2022-06-04. E = -1209.285000 Ha. Imaginary frequency = -225.4 cm-1
C    -0.47445  -0.58917   4.07606
C     0.20749   0.34167   3.08463
O     0.15245   1.56723   3.29798
C     0.89184  -0.22367   1.93653
C     1.86357   0.54287   1.14638
C     3.01757  -0.07157   0.60794
C     3.96897   0.66246  -0.10031
C     3.80584   2.03831  -0.29372
C     2.67490   2.66430   0.23700
C     1.71705   1.93338   0.93890
N     0.74355  -1.58388   1.75845
C     0.82027  -2.28567   0.63305
C    -1.02383  -1.66608  -0.51461
C    -0.69672  -2.33098  -1.82043
C    -1.43328  -1.82499  -3.03476
O     0.02774  -3.31378  -1.88618
C    -2.16700  -2.30775   0.34720
C    -3.50784  -1.86181  -0.26782
C    -3.59879  -0.55497   0.01147
C    -2.30963  -0.22609   0.78554
O    -2.10925  -1.46028   1.49590
C    -1.16620  -0.30795  -0.25766
C    -0.60381   0.81399  -0.96823
C     0.49531   0.64864  -1.84550
C     0.99716   1.72264  -2.57388
C     0.43058   2.99610  -2.43894
C    -0.63682   3.18418  -1.55447
C    -1.14430   2.11138  -0.82163
H     0.20096  -1.38024   4.44142
H    -0.80330   0.01360   4.93199
H    -1.35231  -1.07304   3.62309
H     3.19515  -1.13574   0.76701
H     4.85116   0.15317  -0.49661
H     4.54915   2.61186  -0.85234
H     2.52236   3.73584   0.08729
H     0.83983   2.43624   1.33151
H     0.21403  -2.04721   2.49414
H     1.44590  -1.92937  -0.17786
H     0.61623  -3.35197   0.70671
H    -1.03043  -2.29077  -3.94399
H    -1.40247  -0.73047  -3.10995
H    -2.49447  -2.10810  -2.92396
H    -2.04463  -3.36610   0.59985
H    -4.17177  -2.49449  -0.85596
H    -4.35120   0.17060  -0.29618
H    -2.31418   0.63598   1.45923
H     0.96872  -0.32947  -1.94201
H     1.84763   1.57047  -3.24216
H     0.82872   3.83890  -3.00839
H    -1.07783   4.17642  -1.43276
H    -1.98002   2.27533  -0.13895
