39
Generated by autodE on: 2022-05-29. E = -1014.406800 Ha
C    -3.24414  -1.55737  -0.96591
C    -2.28337  -0.43185  -0.71732
O    -2.27849   0.57248  -1.40342
C    -1.27411  -0.53541   0.47154
C    -1.84429  -1.41442   1.58664
N    -0.94599   0.79662   0.98855
C    -2.01413   1.67178   1.44525
C     0.16902   1.41651   0.32109
C    -0.17460   2.35079  -0.79545
N    -0.42834   3.15786  -1.58733
C     0.91403   2.25479   1.29803
N     1.46055   2.91512   2.07741
C     1.04265   0.22023  -0.22263
F     1.38078   0.49480  -1.53024
C     2.27088  -0.13469   0.62325
C     3.05152  -1.24824  -0.10778
C     2.17615  -2.51184   0.12733
C     0.95184  -1.95665   0.88140
C     1.61711  -0.90307   1.78658
C     0.11250  -1.05675  -0.09307
C    -0.06458  -1.70041  -1.39257
N    -0.20203  -2.22601  -2.41729
H    -4.04200  -1.51030  -0.20595
H    -3.69042  -1.44120  -1.96174
H    -2.76387  -2.54055  -0.87003
H    -1.20230  -1.37425   2.47454
H    -1.92609  -2.45778   1.25799
H    -2.84838  -1.07193   1.87081
H    -1.58481   2.48949   2.04325
H    -2.59745   2.11178   0.61756
H    -2.69514   1.10928   2.09616
H     2.87595   0.74278   0.87761
H     4.04456  -1.35178   0.34965
H     3.19628  -1.01684  -1.17071
H     1.91173  -3.03540  -0.80070
H     2.68757  -3.23540   0.77720
H     0.34678  -2.72641   1.36846
H     0.91322  -0.31091   2.38309
H     2.36511  -1.34866   2.45657
