18
Generated by autodE on: 2022-05-29. E = -464.427418 Ha
N     2.85619   1.44655  -0.61713
C     1.88407   0.89606  -0.28149
C     0.70948   0.24470   0.14879
C     0.16600  -0.88667  -0.35409
F     0.65370  -1.62859  -1.33579
C    -1.19331  -1.10688   0.24184
C    -2.09833   0.01563  -0.37729
C    -1.51729   1.32083   0.23965
C    -0.34321   0.79596   1.12107
C    -0.94237  -0.52511   1.65091
H    -1.58344  -2.12716   0.15259
H    -3.13918  -0.15161  -0.06581
H    -2.06569   0.00198  -1.47548
H    -1.16649   2.03516  -0.51795
H    -2.26073   1.83063   0.86960
H     0.04419   1.50868   1.85791
H    -0.22911  -1.11732   2.24148
H    -1.87204  -0.37625   2.21924
