39
Generated by autodE on: 2022-05-29. E = -1014.339775 Ha. Imaginary frequency = -255.7 cm-1
C    -3.05449  -1.68005  -1.02554
C    -2.26476  -0.43245  -0.73780
O    -2.13955   0.44192  -1.58481
C    -1.73294  -0.24164   0.64221
C    -2.20962  -1.16810   1.71629
N    -1.19609   0.94436   1.01432
C    -1.34704   1.36985   2.42607
C    -0.25966   1.67575   0.25651
C    -0.48135   2.24502  -1.04174
N    -0.46614   2.86973  -2.02527
C     0.60349   2.53467   1.01026
N     1.37382   3.20190   1.57430
C     1.18913  -0.00510  -0.35397
F     1.51494   0.52276  -1.54484
C     2.24878  -0.07950   0.71779
C     3.22364  -1.20061   0.22409
C     2.38815  -2.50416   0.38784
C     1.01513  -1.97471   0.89889
C     1.48326  -0.83256   1.81989
C     0.42119  -1.18771  -0.27921
C     0.04253  -1.84408  -1.47655
N    -0.24008  -2.40265  -2.46065
H    -4.00977  -1.63234  -0.47588
H    -3.25714  -1.72172  -2.10254
H    -2.53742  -2.59446  -0.70791
H    -1.53230  -1.17322   2.57829
H    -2.26527  -2.18757   1.32030
H    -3.22150  -0.89728   2.06564
H    -0.54886   0.97489   3.06884
H    -1.32964   2.46385   2.45936
H    -2.31780   1.03466   2.80027
H     2.72971   0.87013   0.97539
H     4.11437  -1.20472   0.86787
H     3.55357  -1.02489  -0.80897
H     2.28750  -3.07072  -0.54856
H     2.83005  -3.17243   1.14127
H     0.35259  -2.73271   1.33221
H     0.67213  -0.26058   2.27472
H     2.15214  -1.18990   2.61480
