23
Generated by autodE on: 2022-06-19. E = -351.515865 Ha
C     2.55171  -1.74778   0.41069
C     2.50193  -0.39991   0.44408
C     3.75565   0.42187   0.61665
C     1.25912   0.38035   0.32626
C     0.03058  -0.08654  -0.00490
C    -1.14496   0.75341  -0.09552
C    -2.40478   0.36369  -0.41775
C    -3.52604   1.36209  -0.47568
C    -2.80200  -1.04902  -0.73900
H     1.65270  -2.36183   0.30734
H     3.50584  -2.27583   0.49135
H     3.88929   1.11640  -0.23056
H     4.65265  -0.20892   0.69525
H     3.68880   1.04718   1.52372
H     1.35981   1.45530   0.51961
H    -0.08745  -1.15226  -0.22404
H    -0.98460   1.81656   0.12112
H    -3.18870   2.38127  -0.23659
H    -4.33259   1.08647   0.22736
H    -3.98774   1.37300  -1.47946
H    -3.60262  -1.38416  -0.05622
H    -1.97483  -1.76751  -0.67425
H    -3.22656  -1.10387  -1.75711
