22
Generated by autodE on: 2022-07-27. E = -662.387431 Ha
C    -1.11618   0.15182  -3.57364
N    -0.45732  -0.26086  -2.35284
C    -0.64595   0.41367  -1.20078
O    -1.38646   1.41620  -1.15416
C     0.04811  -0.06058   0.01023
N    -0.10155   0.60249   1.18175
C    -0.78686   1.67546   1.53769
C    -0.73033   2.12377   2.87311
N    -0.70856   2.52515   3.96923
C     0.93635  -1.21270   0.17743
O     1.45401  -1.49578   1.25363
O     1.13849  -1.93357  -0.93202
C     2.00031  -3.07693  -0.82229
H    -2.21347   0.11356  -3.47535
H    -0.84267   1.18264  -3.85097
H    -0.81218  -0.52261  -4.38340
H     0.14662  -1.07629  -2.34667
H     0.45182   0.13859   1.92119
H    -1.38347   2.19442   0.79107
H     1.59123  -3.79581  -0.09846
H     3.00714  -2.76842  -0.50732
H     2.03361  -3.52124  -1.82333
