18
Generated by autodE on: 2022-06-18. E = -235.968070 Ha
C    -1.33748  -1.41206   0.32046
C    -0.66830  -0.10478  -0.02995
C    -1.67154   0.94030  -0.45530
C     0.66829   0.10477   0.02995
C     1.67154  -0.94025   0.45544
C     1.33749   1.41201  -0.32060
H    -0.64636  -2.20653   0.62621
H    -2.06427  -1.26377   1.13938
H    -1.92259  -1.78588  -0.53895
H    -2.41675   1.10412   0.34378
H    -2.24245   0.58926  -1.33375
H    -1.23238   1.91275  -0.70810
H     2.41677  -1.10421  -0.34359
H     1.23239  -1.91265   0.70844
H     2.24240  -0.58901   1.33384
H     0.64640   2.20637  -0.62672
H     2.06444   1.26351  -1.13934
H     1.92241   1.78608   0.53883
