23
Generated by autodE on: 2022-06-18. E = -684.240158 Ha
C     1.07705   0.88856   1.84620
N     1.00225   0.16310   0.58132
C    -0.06950  -0.08288  -0.15171
C    -1.46755   0.22854   0.09853
C    -2.30485   0.46708  -1.01028
C    -3.65172   0.76132  -0.81461
C    -4.17996   0.81056   0.48043
C    -3.35734   0.55474   1.58183
C    -2.00629   0.26200   1.39964
O     0.27985  -0.69689  -1.28400
C     1.70318  -0.89684  -1.31336
O     2.22134  -1.44628  -2.26498
C     2.13516  -0.33841  -0.09135
C     3.44006  -0.26536   0.40186
N     4.53974  -0.21391   0.79658
H     0.26185   1.61785   1.89910
H     2.03686   1.41754   1.88095
H     1.01550   0.19001   2.69149
H    -1.88870   0.43159  -2.01788
H    -4.29299   0.95588  -1.67673
H    -5.23692   1.04146   0.63058
H    -3.77143   0.57303   2.59196
H    -1.38722   0.02694   2.26461
