41
Generated by autodE on: 2022-06-18. E = -920.178247 Ha. Imaginary frequency = -456.7 cm-1
C    -0.10140  -2.47685   0.47905
N    -0.23893  -1.26828  -0.31424
C    -1.37993  -0.92055  -1.02938
C    -2.48667  -1.76145  -1.23598
N    -3.43757  -2.41921  -1.38979
C    -1.03274   0.19645  -1.86747
O    -1.58553   0.73694  -2.80595
O     0.17447   0.63686  -1.36967
C     0.45799  -0.07149  -0.19056
C     1.88638  -0.00907   0.20179
C     2.39478  -0.74014   1.29089
C     3.74029  -0.63159   1.64666
C     4.59591   0.21419   0.93559
C     4.09489   0.95470  -0.13879
C     2.75246   0.84623  -0.50340
C    -0.65460   1.01844   1.06800
C    -0.29656   0.52984   2.46549
C    -0.12233   2.42583   0.83543
C    -1.99977   0.74808   0.62352
C    -2.86429  -0.20434   1.40520
C    -2.77862   1.77653  -0.14583
H    -0.31423  -2.31456   1.54440
H    -0.80959  -3.21919   0.09030
H     0.91299  -2.88182   0.36997
H     1.74845  -1.38743   1.87761
H     4.11841  -1.21030   2.49228
H     5.64736   0.29807   1.21958
H     4.75269   1.62146  -0.70090
H     2.37115   1.42466  -1.34389
H     0.75838   0.73161   2.69391
H    -0.48230  -0.53871   2.62315
H    -0.90163   1.07951   3.20740
H    -0.65161   3.13790   1.49165
H    -0.24566   2.76938  -0.19790
H     0.94763   2.47919   1.08537
H    -3.20686   0.30236   2.32797
H    -3.76216  -0.49226   0.84052
H    -2.33986  -1.11517   1.71859
H    -2.17972   2.34702  -0.86483
H    -3.19953   2.50616   0.57296
H    -3.62444   1.31905  -0.67987
