21
Generated by autodE on: 2022-06-29. E = -536.787741 Ha
C     3.37300   0.03191   0.88672
C     1.98573  -0.41913   0.54446
O     1.64199  -1.59452   0.58191
C     1.01649   0.64245   0.15247
C    -0.26801   0.36356  -0.14070
C    -1.26665   1.42110  -0.50909
C    -0.82175   2.85145  -0.60867
O    -2.42628   1.08496  -0.71200
C    -0.83641  -1.04352  -0.15044
C    -1.39174  -1.55402   1.14458
O    -0.92361  -1.64161  -1.20793
H     3.80899   0.56177   0.02313
H     4.00193  -0.82284   1.16518
H     3.33019   0.76074   1.71343
H     1.38654   1.66879   0.11715
H    -0.42406   3.19683   0.35862
H    -0.01342   2.95259  -1.34956
H    -1.67554   3.47554  -0.90081
H    -0.69471  -1.37208   1.97461
H    -1.63304  -2.62249   1.06104
H    -2.31457  -0.98575   1.35463
