55
Generated by autodE on: 2022-06-29. E = -1377.371850 Ha. Imaginary frequency = -189.6 cm-1
C    -2.72704   3.95323  -1.80621
N    -2.43172   2.85237  -0.91533
C    -1.18534   2.63081  -0.46016
O    -0.24399   3.39355  -0.71056
C    -0.99893   1.38902   0.35668
C    -2.01251   1.05204   1.41175
O    -3.09154   1.65722   1.49677
N    -1.66464   0.06737   2.26783
C    -2.64278  -0.45274   3.20235
O     0.24357   1.09129   0.78789
C     1.41709   0.91214   0.22216
C     1.86364   1.57345  -1.03544
C     2.39888   0.35018   1.15729
C     2.01957  -0.02235   2.46603
C     2.94375  -0.59354   3.33600
C     4.26678  -0.79776   2.92753
C     4.65951  -0.41896   1.64020
C     3.73859   0.14953   0.76258
C     0.28639  -0.91486  -1.07787
C     0.70615  -1.83310  -0.03263
C     2.00124  -2.57420  -0.21468
O     0.01100  -2.01742   0.98011
C    -1.04124  -0.49063  -1.17710
C    -1.42080   0.32709  -2.39018
C    -2.85836   0.34685  -2.82830
O    -0.56430   0.92785  -3.02562
C    -2.16052  -1.35597  -0.61257
C    -2.14095  -2.81759  -0.99545
O    -3.13678  -0.88925  -0.05296
H    -2.05729   3.92738  -2.67992
H    -3.76406   3.85858  -2.15142
H    -2.60560   4.93269  -1.31325
H    -3.18303   2.28879  -0.52912
H    -0.93687  -0.57697   1.95193
H    -3.50141  -0.90904   2.68011
H    -2.16350  -1.21500   3.82983
H    -3.02619   0.34748   3.85160
H     2.64549   0.96727  -1.50822
H     1.04933   1.71386  -1.74424
H     2.29857   2.55559  -0.78548
H     0.99816   0.14773   2.79860
H     2.63162  -0.87616   4.34372
H     4.99015  -1.24507   3.61296
H     5.69071  -0.56990   1.31415
H     4.06659   0.42528  -0.23844
H     0.97858  -0.68409  -1.88504
H     2.45960  -2.78239   0.76171
H     2.70242  -2.03121  -0.86121
H     1.77214  -3.53935  -0.70065
H    -3.12623  -0.65659  -3.20223
H    -3.53459   0.56663  -1.99409
H    -2.98453   1.08154  -3.63282
H    -2.73902  -3.39478  -0.27730
H    -1.13798  -3.24298  -1.10375
H    -2.63508  -2.88383  -1.98108
