42
Generated by autodE on: 2022-06-01. E = -1215.292505 Ha
C     4.74736  -0.89275   0.54566
N     3.39768  -0.37736   0.42485
C     2.35949  -1.21430   0.23377
O     2.51670  -2.44157   0.17692
C     1.00185  -0.59427   0.12795
C    -0.15245  -1.24288  -0.12737
C    -0.40875  -2.66902  -0.46188
C    -1.30787  -0.24675  -0.04081
C    -2.05066  -0.14900  -1.40746
O    -1.60613   0.62051  -2.26543
N    -3.09435  -0.95024  -1.60135
C    -3.79755  -0.98809  -2.87130
C    -2.19632  -0.64242   1.15575
O    -3.05052  -1.50577   1.09947
O    -1.86311   0.01172   2.24909
C    -2.55455  -0.34120   3.46306
O    -0.70046   1.00685   0.19148
C     0.69697   0.88714   0.37600
C     1.03360   1.28139   1.76507
N     1.25568   1.57500   2.86388
C     1.44452   1.83422  -0.60622
O     2.56471   2.26519  -0.29959
N     0.81194   2.06995  -1.74502
C     1.41645   2.87265  -2.79278
H     4.82021  -1.61286   1.37493
H     5.06874  -1.40678  -0.37516
H     5.42797  -0.05510   0.74078
H     3.27186   0.63430   0.34270
H     0.45515  -3.29070  -0.21286
H    -0.61107  -2.76016  -1.54277
H    -1.30414  -3.03300   0.06320
H    -3.40784  -1.51878  -0.81525
H    -4.27224  -0.01919  -3.09184
H    -3.10457  -1.22486  -3.69284
H    -4.57246  -1.76195  -2.82147
H    -2.11652   0.28812   4.24505
H    -3.62872  -0.13620   3.35700
H    -2.39740  -1.40512   3.68839
H    -0.10496   1.62436  -1.90031
H     1.54339   3.91764  -2.46949
H     0.76306   2.85007  -3.67294
H     2.40636   2.47776  -3.06822
