14
Generated by autodE on: 2022-06-01. E = -324.833643 Ha
C     3.12011  -0.71224  -0.05560
C     1.74660  -0.24056  -0.00931
C     0.60609   0.14386   0.02765
C    -0.73557   0.70492   0.08855
O    -0.90427   1.91634   0.28992
N    -1.76486  -0.14814  -0.10097
C    -1.70349  -1.59025  -0.23435
H     3.31621  -1.41542   0.77012
H     3.83015   0.12558   0.03012
H     3.31901  -1.23829  -1.00335
H    -2.68327   0.27833   0.00381
H    -2.13489  -2.09098   0.64732
H    -2.25861  -1.91991  -1.12582
H    -0.66000  -1.91032  -0.33967
