28
Generated by autodE on: 2022-06-01. E = -890.320415 Ha
C     4.13337   1.23706  -0.80610
N     3.25632   0.42407   0.01615
C     2.01430   0.11742  -0.38151
O     1.51076   0.49517  -1.44377
C     1.26241  -0.83095   0.49102
C     1.90763  -1.89842   1.15421
N     2.48112  -2.74224   1.72180
O    -0.04201  -0.95200   0.41934
C    -0.94462  -0.09126   0.00971
C    -0.67097   1.36695   0.08014
O     0.28450   1.77760   0.75506
N    -1.53475   2.17377  -0.55493
C    -1.45378   3.61413  -0.42074
C    -2.28607  -0.66854  -0.16081
O    -3.24361  -0.02353  -0.56782
O    -2.34029  -1.96659   0.13375
C    -3.61367  -2.60921  -0.03381
H     5.03338   1.47953  -0.22940
H     4.42926   0.70509  -1.72450
H     3.62895   2.17040  -1.09773
H     3.59739   0.06809   0.90491
H    -2.37841   1.74239  -0.93152
H    -1.80741   3.95616   0.56678
H    -2.07282   4.07976  -1.19738
H    -0.41292   3.94502  -0.54247
H    -3.94509  -2.53489  -1.07948
H    -3.45764  -3.65791   0.24302
H    -4.36535  -2.14854   0.62319
