23
Generated by autodE on: 2022-10-21. E = -625.454078 Ha
C     4.42091   1.34306  -0.20757
N     3.47080   0.27173  -0.02375
C     2.12276   0.44138  -0.05574
O     1.59890   1.55128  -0.25216
N     1.49612  -0.78707   0.16159
N     0.18124  -0.91241   0.17284
C    -0.21539  -2.31957   0.42903
C    -0.75144   0.01576  -0.00791
C    -2.18770  -0.23971   0.01985
O    -2.77498  -1.29543   0.20551
O    -2.83683   0.92243  -0.20198
C    -4.26682   0.86285  -0.20926
H     5.08479   1.14731  -1.06552
H     3.87454   2.27483  -0.39537
H     5.05100   1.48140   0.68670
H     3.80973  -0.66897   0.14519
H     0.70986  -2.88457   0.55851
H    -0.79144  -2.69573  -0.42337
H    -0.83590  -2.36436   1.33027
H    -0.40419   1.02507  -0.18927
H    -4.61163   1.88771  -0.39028
H    -4.64620   0.50136   0.75807
H    -4.62411   0.19694  -1.00896
