23
Generated by autodE on: 2022-10-26. E = -625.449127 Ha
C    -0.37388   2.87820   1.13739
N     0.79038   2.79381   0.27720
C     1.15838   1.70900  -0.45520
O     2.21727   1.69684  -1.10614
N     0.26427   0.66192  -0.30091
N     0.25810  -0.32484  -1.15737
C     0.83083  -0.19210  -2.53024
C    -0.32571  -1.48711  -0.89578
C    -0.92942  -1.95983   0.35018
O    -1.41313  -3.08394   0.40361
O    -0.91299  -1.12686   1.39371
C    -1.49698  -1.62111   2.60693
H    -0.35924   2.11301   1.93022
H    -1.31038   2.75708   0.57211
H    -0.38385   3.86908   1.60998
H     1.47179   3.54451   0.30133
H     1.91979  -0.26912  -2.46865
H     0.41718  -0.98895  -3.15456
H     0.55609   0.78976  -2.92908
H    -0.36108  -2.20467  -1.71089
H    -1.39626  -0.81124   3.33875
H    -2.55829  -1.86572   2.45424
H    -0.96459  -2.51781   2.95642
