17
Generated by autodE on: 2022-10-21. E = -521.360588 Ha
C    -2.86012   0.16777   0.45519
O    -1.82520  -0.81748   0.41666
C    -0.62586  -0.39869  -0.01622
C    -0.10903   0.75894  -0.45322
F    -0.65094   1.98187  -0.57224
C     1.40035   0.50866  -0.60689
C     1.99666   0.29984   0.80939
C     1.48834  -0.86342   1.22572
C     0.59535  -1.34284   0.05439
O     1.36218  -0.85883  -1.06685
H    -3.76354  -0.33814   0.81839
H    -2.59362   0.98695   1.14178
H    -3.04600   0.57706  -0.55083
H     1.93644   1.17454  -1.29278
H     2.64523   1.00570   1.32720
H     1.60090  -1.37650   2.17995
H     0.36977  -2.41295  -0.01410
