40
Generated by autodE on: 2022-10-21. E = -1146.804629 Ha. Imaginary frequency = -243.7 cm-1
C    -2.21822   3.79473   0.73401
N    -0.78355   3.82468   0.50666
C     0.05390   2.75438   0.49374
O     1.28342   2.88504   0.59421
N    -0.52956   1.49202   0.48213
C     0.75349  -0.37219   0.55498
C     1.71893  -0.13286  -0.62381
O     0.82237  -0.32162  -1.73423
C     0.38701  -1.63650  -1.33995
C     1.75633  -2.32584  -1.22892
F     1.91722  -3.64543  -1.41822
C     2.59991  -1.39282  -0.75829
O     3.87492  -1.37273  -0.33930
C     4.56009  -2.62724  -0.34161
C    -0.11175  -1.33862   0.09268
C    -2.05461   0.02006  -0.35314
C    -2.67187  -0.50054   0.86929
O    -3.39095  -1.49036   0.84321
O    -2.41810   0.17754   1.99465
C    -3.02865  -0.32271   3.19106
N    -1.36487   1.16428  -0.47936
C    -1.26543   1.78411  -1.81497
H    -2.49366   2.92339   1.34335
H    -2.80098   3.76207  -0.20172
H    -2.50924   4.70298   1.27882
H    -0.31080   4.72137   0.57258
H     1.00260  -0.14137   1.58711
H     2.24194   0.82749  -0.65916
H    -0.32210  -2.07751  -2.04952
H     4.05891  -3.34633   0.32573
H     4.60871  -3.04333  -1.36066
H     5.57626  -2.43207   0.02367
H    -0.66650  -2.06058   0.68879
H    -2.48578  -0.37961  -1.26910
H    -2.70133   0.34545   3.99619
H    -4.12501  -0.30564   3.10667
H    -2.69561  -1.35104   3.39318
H    -0.22407   2.06016  -2.01010
H    -1.60395   1.06762  -2.57024
H    -1.90661   2.67503  -1.85273
