39
Generated by autodE on: 2022-06-21. E = -1138.762879 Ha
C     4.29480   0.63834   0.79038
O     2.88341   0.37188   0.70756
C     2.35765   0.30403  -0.50809
O     2.98082   0.43170  -1.53822
C     0.87194   0.01029  -0.44620
C     0.10603   0.13624  -1.76999
O     0.30460   0.79649  -2.75128
O    -0.98873  -0.65471  -1.60578
C    -0.86468  -1.21463  -0.24054
C    -1.65769  -2.44421  -0.25167
N    -2.28049  -3.41015  -0.39479
N     0.55293  -1.36500  -0.01995
C     1.23123  -2.43361  -0.76146
C    -1.25826  -0.07637   0.74784
C    -1.37503  -0.66824   2.16122
N    -1.24749   0.20088   3.17472
O    -1.60873  -1.86535   2.33182
C    -2.61176   0.58233   0.37190
C    -2.47440   1.76992  -0.53331
C    -1.35622   2.51100  -0.53359
N    -0.23865   2.21562   0.24960
C     0.95046   3.03193   0.05204
C     0.01284   0.83982   0.60191
H     4.85976  -0.15268   0.27799
H     4.51978   1.61175   0.33238
H     4.53447   0.65184   1.85906
H     0.83161  -3.40170  -0.43202
H     2.30038  -2.40960  -0.51315
H     1.11712  -2.35223  -1.85644
H    -1.10994   1.19430   3.02410
H    -1.38520  -0.13044   4.12517
H    -3.26648  -0.18650  -0.06699
H    -3.11018   0.89394   1.30611
H    -3.32353   2.06709  -1.14999
H    -1.26772   3.41734  -1.13715
H     1.65954   2.86281   0.87414
H     1.46292   2.81792  -0.90432
H     0.67236   4.09480   0.05479
H     0.60256   0.81006   1.52447
