20
Generated by autodE on: 2022-06-21. E = -457.715324 Ha
C     3.15297  -0.40581   0.04190
N     1.82074   0.15738  -0.10220
C     1.66931   1.43342  -0.65897
C     0.46799   1.99290  -0.87296
C    -0.83298   1.30493  -0.54015
C    -0.57024  -0.07153   0.04930
C    -1.67661  -0.94928   0.46289
N    -2.92776  -0.46010   0.27112
O    -1.50921  -2.07992   0.96421
C     0.69744  -0.54230   0.22103
H     3.08523  -1.37187   0.55732
H     3.79727   0.26272   0.63447
H     3.62961  -0.56421  -0.93997
H     2.60402   1.94111  -0.90392
H     0.43118   2.99498  -1.30634
H    -1.42457   1.92883   0.16095
H    -1.46732   1.23393  -1.44751
H    -3.10307   0.44860  -0.13811
H    -3.72011  -1.03270   0.54056
H     0.85711  -1.53524   0.64451
