39
Generated by autodE on: 2022-06-21. E = -1138.739288 Ha. Imaginary frequency = -303.4 cm-1
C     4.57943  -0.15687   0.18953
O     3.22973  -0.57313  -0.03828
C     2.49249   0.19768  -0.86572
O     2.94282   1.20757  -1.39874
C     1.13663  -0.26260  -1.02433
C     0.15691   0.41601  -1.80454
O     0.16005   1.39219  -2.53201
O    -1.05646  -0.26878  -1.56722
C    -0.82175  -1.10688  -0.47638
C    -1.74788  -2.22655  -0.43983
N    -2.51310  -3.09655  -0.39633
N     0.52721  -1.40572  -0.47833
C     1.15712  -2.51910   0.20965
C    -1.24645   0.04423   0.96094
C    -0.95036  -0.83011   2.16716
N    -1.97016  -1.56897   2.63722
O     0.17971  -0.87796   2.66419
C    -2.71287   0.46597   0.75929
C    -2.84968   1.74539  -0.01578
C    -1.82784   2.58835  -0.19175
N    -0.54944   2.30788   0.34071
C     0.49444   3.32060   0.19423
C    -0.27359   1.11350   0.85635
H     5.14776  -0.13930  -0.75214
H     4.60776   0.84316   0.64689
H     5.01124  -0.89564   0.87514
H     0.38489  -3.26333   0.44362
H     1.64112  -2.20524   1.14051
H     1.90339  -2.98303  -0.45041
H    -2.88640  -1.58459   2.20492
H    -1.79021  -2.20604   3.40770
H    -3.20532   0.59456   1.74100
H    -3.28378  -0.33390   0.25822
H    -3.83159   2.00964  -0.41230
H    -1.90302   3.53603  -0.72397
H     1.40618   2.97982   0.69748
H     0.70814   3.47867  -0.87159
H     0.15882   4.26748   0.64083
H     0.69613   0.99102   1.33319
