34
Generated by autodE on: 2022-10-21. E = -1834.069463 Ha
C     4.15325  -0.06148  -1.29540
O     3.09912   0.23167  -0.36194
C     2.21969  -0.72974  -0.12804
O     2.28148  -1.84255  -0.60586
C     1.16105  -0.33708   0.91244
N     0.15093  -1.38188   1.04478
C    -1.07242  -1.02200   0.34813
C    -2.21962  -0.98178   1.28168
N    -3.12272  -1.05196   2.00571
C    -1.43912  -2.08882  -0.75192
C    -2.72967  -1.90763  -1.48448
O    -0.69120  -3.02582  -0.90363
C    -0.83231   0.39472  -0.26521
Cl   -0.09877   0.15419  -1.98148
O    -1.97814   1.09530  -0.34214
C    -1.93241   2.47534  -0.73585
C     0.34661   0.94302   0.59498
Cl   -0.44503   1.45727   2.21956
O     0.95294   1.99813   0.01559
C     1.94486   2.71967   0.75742
H     4.75140  -0.91225  -0.94028
H     4.76731   0.84432  -1.34716
H     3.72704  -0.29323  -2.28174
H     1.71709  -0.18904   1.85096
H     0.49882  -2.25728   0.64516
H    -2.99430  -0.84944  -1.60559
H    -2.67593  -2.41808  -2.45461
H    -3.52315  -2.38284  -0.88201
H    -1.49024   3.08973   0.05933
H    -2.97560   2.76966  -0.89930
H    -1.36045   2.58931  -1.66746
H     2.48327   3.33040   0.02281
H     1.45403   3.37052   1.49547
H     2.64941   2.04483   1.25938
