20
Generated by autodE on: 2022-10-21. E = -606.997733 Ha
C    -4.50247  -0.43877  -0.13811
O    -3.26406   0.23683  -0.40444
C    -2.15150  -0.36615   0.01567
O    -2.11909  -1.43790   0.59967
C    -0.95786   0.41881  -0.30945
N     0.19145  -0.08147   0.05935
C     1.46952   0.35611  -0.06614
C     1.74889   1.58294  -0.69859
N     1.98042   2.60013  -1.22336
C     2.48214  -0.53439   0.49398
C     3.92074  -0.11889   0.38342
O     2.12830  -1.58922   1.03006
H    -5.28931   0.19760  -0.55844
H    -4.64717  -0.55934   0.94537
H    -4.51164  -1.42663  -0.62105
H    -1.00999   1.37439  -0.83056
H     0.15757  -0.99591   0.54885
H     4.56123  -0.86764   0.86596
H     4.20426  -0.01617  -0.67670
H     4.07436   0.86426   0.85641
