34
Generated by autodE on: 2022-10-21. E = -1834.005607 Ha. Imaginary frequency = -442.1 cm-1
C     4.62080  -0.19253   0.82538
O     3.25108  -0.41913   1.19176
C     2.47630  -0.99008   0.27521
O     2.85852  -1.39983  -0.80455
C     1.05911  -1.01437   0.70503
N     0.22920  -1.73858  -0.06608
C    -1.11865  -1.57414   0.02517
C    -1.72325  -1.41885   1.30211
N    -2.23086  -1.29363   2.34266
C    -1.91391  -2.01326  -1.14439
C    -3.39935  -1.84255  -1.06642
O    -1.32402  -2.42942  -2.13435
C    -0.90334   0.79648  -0.32371
Cl   -0.81100   0.76659  -2.09910
O    -2.09221   1.11819   0.19811
C    -2.46333   2.51013   0.11074
C     0.34684   0.97859   0.32610
Cl    0.20843   1.61460   2.00332
O     1.44739   1.40016  -0.34889
C     1.47026   2.79415  -0.69630
H     5.12270  -1.14502   0.60343
H     5.08798   0.29195   1.68998
H     4.67077   0.46494  -0.05469
H     0.83516  -0.92669   1.76852
H     0.55476  -1.98909  -1.00748
H    -3.63789  -0.80634  -0.77718
H    -3.85415  -2.08247  -2.03534
H    -3.81288  -2.50109  -0.28526
H    -1.68896   3.14541   0.56408
H    -3.40495   2.60857   0.66391
H    -2.61403   2.79034  -0.94255
H     2.34913   2.93602  -1.33722
H     0.55862   3.08093  -1.24161
H     1.56861   3.40771   0.21212
