44
Generated by autodE on: 2022-06-21. E = -1009.843568 Ha
C    -5.71159   0.21723  -0.80639
C    -4.63842   0.55506  -0.06364
C    -4.75589   1.41688   1.16497
C    -3.31151   0.06914  -0.45540
C    -2.16481   0.33467   0.19612
C    -0.83925  -0.18007  -0.25722
C    -0.07150  -1.05450   0.80861
C    -0.38165  -0.66862   2.20647
N    -0.60194  -0.35221   3.29944
C    -0.48586  -2.46623   0.63753
N    -0.80054  -3.57002   0.47698
N     1.34926  -0.82459   0.54468
C     2.26660  -1.93210   0.78386
C     1.52373  -0.00199  -0.64338
C     1.64278  -0.84630  -1.85675
N     1.72453  -1.58894  -2.74424
C     2.77930   0.90223  -0.59950
O     3.20675   1.38576  -1.64908
N     3.29528   1.12471   0.61104
C     4.36987   2.07418   0.82948
C     0.21384   0.88012  -0.68641
C    -0.10031   1.42350  -2.07805
C     0.30576   2.04488   0.30763
H    -5.60837  -0.41098  -1.69628
H    -6.71705   0.55849  -0.54457
H    -5.80001   1.70514   1.35056
H    -4.37657   0.88915   2.05580
H    -4.15419   2.33541   1.06358
H    -3.27459  -0.55928  -1.35258
H    -2.17335   0.95593   1.09473
H    -0.99360  -0.84488  -1.11843
H     2.11547  -2.30929   1.80542
H     2.12593  -2.76464   0.07138
H     3.30028  -1.57369   0.70250
H     2.80562   0.72553   1.40734
H     3.99808   3.11249   0.81983
H     4.83504   1.87283   1.80247
H     5.12692   1.97103   0.04010
H    -1.04049   1.99290  -2.04189
H    -0.21900   0.61816  -2.81685
H     0.70001   2.09612  -2.41770
H    -0.65799   2.57164   0.33313
H     1.06646   2.76992  -0.01417
H     0.54328   1.72155   1.33027
