23
Generated by autodE on: 2022-06-21. E = -351.521384 Ha
C     2.27892  -1.19797  -2.76964
C     1.83559  -0.39315  -1.77896
C     2.58309   0.85738  -1.39215
C     0.60837  -0.72910  -1.05978
C     0.05982  -0.00680  -0.05069
C    -1.16172  -0.38577   0.62970
C    -1.77443   0.28040   1.64090
C    -1.27194   1.56298   2.24074
C    -3.04473  -0.24417   2.24847
H     1.73399  -2.10519  -3.04836
H     3.19364  -0.97037  -3.32408
H     2.89036   0.82524  -0.33360
H     3.48299   0.99024  -2.00905
H     1.94846   1.75168  -1.50805
H     0.10250  -1.64824  -1.37920
H     0.55827   0.91058   0.27369
H    -1.63022  -1.31327   0.27875
H    -2.04014   2.35155   2.15336
H    -0.34730   1.93453   1.78071
H    -1.08967   1.43296   3.32225
H    -3.37418  -1.18268   1.77893
H    -2.91642  -0.42160   3.33149
H    -3.85846   0.49748   2.15565
