21
Generated by autodE on: 2022-06-21. E = -658.269908 Ha
C     3.73487  -0.17732  -0.67345
N     2.55095  -0.48692   0.10765
C     1.42527   0.22608  -0.02748
O     1.29446   1.16423  -0.81606
C     0.30735  -0.12787   0.91907
C     0.65314  -0.48042   2.24503
N     1.01478  -0.78250   3.31225
N    -0.98076   0.03893   0.58761
C    -2.00504   0.17429   1.64895
C    -1.44157   0.09745  -0.69714
C    -0.70013  -0.40246  -1.79124
N    -0.14043  -0.85401  -2.70912
C    -2.75280   0.55951  -0.95684
N    -3.82741   0.93336  -1.21366
H     3.53065  -0.27830  -1.75064
H     4.07211   0.85310  -0.48332
H     4.53357  -0.87318  -0.39263
H     2.57303  -1.27313   0.75052
H    -2.77299  -0.59475   1.50656
H    -1.53503   0.06591   2.62906
H    -2.45061   1.17457   1.56991
