21
Generated by autodE on: 2022-07-27. E = -658.267618 Ha
C     3.92032   1.74321   0.49035
N     2.82149   0.95954  -0.04153
C     1.64035   0.89910   0.59590
O     1.41519   1.46774   1.66600
C     0.56721   0.11966  -0.11406
C     0.63067   0.01697  -1.52360
N     0.77453  -0.09081  -2.67612
N    -0.46458  -0.41800   0.55786
C    -0.33639  -0.70604   2.00754
C    -1.66204  -0.74981  -0.01342
C    -2.58183  -1.58548   0.66429
N    -3.38042  -2.26512   1.17470
C    -2.08683  -0.20467  -1.24668
N    -2.50057   0.25707  -2.23456
H     4.33138   1.29017   1.40715
H     4.71290   1.79838  -0.26516
H     3.58327   2.76129   0.73468
H     2.97291   0.41582  -0.88572
H     0.71564  -0.72258   2.29031
H    -0.77946  -1.69211   2.18890
H    -0.88151   0.05788   2.57469
