21
Generated by autodE on: 2022-10-26. E = -512.793011 Ha
C    -3.60597  -0.59756  -0.20339
C    -2.15446  -0.21101  -0.16375
C    -1.48792  -0.22220   1.08005
N    -1.05761  -0.25059   2.16653
N    -1.55847   0.17916  -1.30044
N    -0.36731   0.55216  -1.64792
C     0.69102   0.31974  -0.75261
C     1.53908   1.38901  -0.41661
C     2.65679   1.17468   0.39218
C     2.95665  -0.10928   0.85864
C     2.13017  -1.18221   0.50336
C     1.00622  -0.97607  -0.29451
H    -4.18181  -0.04328   0.55407
H    -3.73898  -1.67407  -0.00438
H    -4.03402  -0.37766  -1.19325
H    -2.21853   0.23834  -2.08436
H     1.30195   2.38717  -0.79030
H     3.29908   2.01797   0.65767
H     3.83330  -0.27580   1.48855
H     2.36448  -2.19159   0.85028
H     0.36688  -1.81745  -0.57005
