21
Generated by autodE on: 2022-10-20. E = -512.804348 Ha
C     3.20369  -0.92179   0.07874
C     2.43570   0.34579   0.23559
C     3.05010   1.58576   0.50370
N     3.59071   2.59746   0.73268
N     1.10507   0.33850   0.10433
N     0.41109  -0.71376  -0.18856
C    -0.97367  -0.56542  -0.19409
C    -1.70347  -1.61284  -0.79741
C    -3.09388  -1.57054  -0.85952
C    -3.79490  -0.48705  -0.31532
C    -3.08260   0.54815   0.30016
C    -1.68958   0.51476   0.37107
H     4.27330  -0.75139   0.25223
H     3.06389  -1.33524  -0.93517
H     2.83584  -1.68279   0.78784
H     0.63407   1.24727   0.23064
H    -1.14832  -2.45165  -1.22206
H    -3.63658  -2.38987  -1.33722
H    -4.88554  -0.45450  -0.36116
H    -3.61799   1.38991   0.74625
H    -1.17637   1.32435   0.89571
