29
Generated by autodE on: 2022-10-20. E = -803.956216 Ha. Imaginary frequency = -393.9 cm-1
C     0.10699   3.79675  -0.38774
O    -0.04349   2.54664  -1.09388
C    -0.86481   1.69593  -0.51961
C    -1.73679   1.18559   0.18745
F    -2.80379   1.22104   0.96214
C    -1.68318  -1.10512  -0.12262
C    -3.08953  -1.62642  -0.20331
C    -1.04085  -1.22973   1.14823
N    -0.65327  -1.35847   2.23945
N    -0.99130  -0.95524  -1.27263
N     0.11744  -0.28425  -1.46585
C     1.21486  -0.56874  -0.63645
C     2.16097   0.44289  -0.37596
C     3.30838   0.16182   0.36396
C     3.55658  -1.13176   0.83836
C     2.64065  -2.14810   0.54942
C     1.48417  -1.87786  -0.18147
H     0.80723   4.40084  -0.97790
H    -0.86468   4.30843  -0.31056
H     0.51666   3.61338   0.61737
H    -3.70139  -1.15101   0.57606
H    -3.12337  -2.71642  -0.04231
H    -3.52650  -1.39378  -1.18563
H    -1.60089  -0.95445  -2.09492
H     1.97699   1.44842  -0.75129
H     4.02070   0.96510   0.56856
H     4.45878  -1.34709   1.41493
H     2.82653  -3.16863   0.89353
H     0.78867  -2.68626  -0.41252
