15
Generated by autodE on: 2022-06-10. E = -454.220547 Ha
C     2.41653  -0.56251  -0.49943
C     0.94847  -0.88822  -0.50016
O     0.51245  -1.94209  -0.94092
C     0.05885   0.15609   0.06873
C     0.60332   1.36876   0.57856
N     1.08949   2.34492   0.98426
N    -1.28037   0.06052   0.14988
C    -2.02152  -1.12547  -0.33282
O    -1.96207   0.97869   0.63954
H     2.76879  -0.38123   0.52862
H     2.97113  -1.39908  -0.94137
H     2.60510   0.35793  -1.07502
H    -1.68658  -2.01076   0.21907
H    -1.81950  -1.26995  -1.39987
H    -3.07550  -0.90349  -0.14404
