53
Generated by autodE on: 2022-06-10. E = -1612.059220 Ha. Imaginary frequency = -306.3 cm-1
C    -4.18694  -2.79472   2.27111
N    -3.34016  -3.96864   2.35320
C    -3.24157  -4.66793   3.49317
O    -3.69123  -4.27299   4.56791
C    -2.50995  -6.05301   3.39446
C    -1.47663  -5.98069   2.23952
O    -1.85377  -6.06854   1.06197
N    -0.19842  -5.76494   2.56070
C     0.83401  -5.70582   1.54113
C    -1.90384  -6.36367   4.78565
C    -1.28030  -7.74940   4.99977
C    -2.28014  -8.89155   5.29112
C    -2.40665 -10.02235   4.27089
C    -3.06953  -9.68174   2.86949
C    -3.98335 -10.79792   2.55271
N    -4.64664 -11.72419   2.34458
C    -1.99645  -9.70526   1.74042
F    -1.00513  -8.83972   1.98012
F    -1.44834 -10.92312   1.63061
F    -2.53336  -9.39300   0.55309
C    -3.72466  -8.34639   2.85530
C    -3.47417  -7.12994   3.03082
O    -5.13477  -6.16632   2.65412
N    -6.04125  -7.02095   2.94516
C    -6.57505  -6.94365   4.30725
C    -5.96825  -8.18685   2.26937
C    -6.75370  -9.27434   2.77686
N    -7.39689 -10.14615   3.19438
C    -5.59569  -8.29562   0.80829
C    -5.13743  -7.09598   0.03539
O    -5.71527  -9.39580   0.29294
H    -4.02224  -2.30042   1.30563
H    -5.25354  -3.06510   2.35704
H    -3.94607  -2.08971   3.07882
H    -3.07290  -4.43868   1.49114
H     0.07678  -5.73086   3.53521
H     0.88602  -6.65326   0.98189
H     0.63323  -4.89500   0.82468
H     1.79948  -5.52301   2.02754
H    -2.70763  -6.21188   5.51776
H    -1.16486  -5.57739   5.00642
H    -0.62303  -8.01689   4.16026
H    -0.61433  -7.65079   5.86994
H    -3.27855  -8.47809   5.50199
H    -1.97123  -9.39387   6.22119
H    -3.02049 -10.81100   4.72450
H    -1.42559 -10.47751   4.07138
H    -7.55961  -7.42074   4.36212
H    -5.86670  -7.44327   4.98868
H    -6.64870  -5.88095   4.56155
H    -5.77559  -6.22309   0.23036
H    -5.15784  -7.35946  -1.03007
H    -4.11260  -6.82507   0.32694
