20
Generated by autodE on: 2022-05-30. E = -975.268914 Ha
C    -3.63024  -0.16556   1.53445
N    -2.18886  -0.22317   1.40267
C    -1.59592  -0.24320   0.18706
O    -2.25578  -0.22608  -0.86120
C    -0.12155  -0.28179   0.19517
C     0.73932  -0.05494  -0.81378
Cl    0.47552   0.35020  -2.45474
C     2.15546  -0.08383  -0.19466
C     2.27236   1.17519   0.69480
C     1.43925   0.94679   1.71366
C     0.82527  -0.44108   1.42223
O     1.94457  -1.09728   0.79866
H    -3.89181  -0.20104   2.59884
H    -4.10879  -1.01514   1.02229
H    -4.03918   0.76101   1.09928
H    -1.62333  -0.20989   2.24379
H     2.98000  -0.31557  -0.87633
H     2.87388   2.05245   0.46094
H     1.16914   1.58560   2.55363
H     0.43891  -1.01527   2.27122
