18
Generated by autodE on: 2022-05-30. E = -476.545109 Ha
C     3.15319  -0.44742   0.08263
O     1.78195  -0.85710   0.01810
C     0.86423   0.12212   0.03644
O     1.17109   1.30156   0.10504
C    -0.50226  -0.42679  -0.03478
C    -0.78824  -1.88874  -0.10446
N    -1.55905   0.37657  -0.03743
C    -1.48958   1.85564   0.02183
O    -2.73092  -0.10545  -0.09369
H     3.74437  -1.37008   0.05725
H     3.34906   0.10377   1.01401
H     3.40705   0.19028  -0.77674
H     0.13346  -2.47690  -0.10120
H    -1.36751  -2.11732  -1.01502
H    -1.42100  -2.19120   0.74704
H    -0.91438   2.23931  -0.82752
H    -2.52885   2.19364  -0.01870
H    -1.00729   2.17058   0.95373
