18
Generated by autodE on: 2022-07-26. E = -476.540463 Ha
C     1.87851   1.13880   2.31831
O     1.48317   0.22433   1.29096
C     0.32934   0.50225   0.65353
O    -0.34124   1.48030   0.93192
C     0.03422  -0.51696  -0.37825
C     0.94829  -1.68248  -0.61354
N    -1.06541  -0.38642  -1.11575
C    -1.35146  -1.40640  -2.15477
O    -1.92089   0.53797  -1.02098
H     1.12170   1.17760   3.11582
H     2.82604   0.75596   2.71503
H     2.02024   2.14879   1.90617
H     0.41880  -2.64222  -0.50402
H     1.77110  -1.66461   0.10584
H     1.38074  -1.65965  -1.62756
H    -0.51129  -1.47618  -2.85672
H    -2.25807  -1.07140  -2.66538
H    -1.51161  -2.38350  -1.68048
