38
Generated by autodE on: 2022-05-30. E = -1451.800869 Ha. Imaginary frequency = -295.9 cm-1
C    -2.58731   2.93643   0.97049
N    -1.72793   1.87873   0.48179
C    -2.13038   0.60270   0.44877
O    -3.26074   0.23287   0.81285
C    -1.15056  -0.40687  -0.03474
O    -0.61616   0.56528  -1.76441
N     0.51327   0.02951  -2.07007
C     0.52975  -0.87257  -3.22597
C     1.47953   0.02367  -1.11797
C     2.62638  -0.93173  -1.26551
C     1.73858   1.32005  -0.41789
O     1.00779   2.29599  -0.39683
O     2.92537   1.30601   0.18983
C     3.26956   2.46732   0.95835
C     0.10003  -0.72564   0.53302
Cl    0.67420  -0.01693   2.03816
C     0.18237  -2.26739   0.42609
C    -0.89288  -2.84468   1.36700
C    -2.05886  -2.54280   0.78429
C    -1.68105  -1.78057  -0.49883
O    -0.44673  -2.43512  -0.84760
H    -2.96297   2.70523   1.97940
H    -3.46033   3.09092   0.31412
H    -2.01178   3.86967   1.01289
H    -0.81467   2.10335   0.08292
H     0.33561  -1.90685  -2.91693
H     1.49813  -0.80281  -3.73663
H    -0.26549  -0.52735  -3.89607
H     2.28453  -1.91140  -1.61915
H     3.38605  -0.54847  -1.96705
H     3.11119  -1.06436  -0.29079
H     4.24561   2.25101   1.40717
H     3.33472   3.35267   0.31029
H     2.51797   2.63960   1.74185
H     1.18400  -2.70732   0.46097
H    -0.69676  -3.33093   2.32170
H    -3.07628  -2.70931   1.13325
H    -2.39635  -1.77397  -1.32665
