44
Generated by autodE on: 2022-05-30. E = -1062.648101 Ha
C    -3.59500   2.12568  -0.87160
C    -3.16239   1.74413   0.51135
O    -3.20003   2.52578   1.44825
C    -2.62716   0.31861   0.73600
C    -3.27108  -0.25364   2.00269
O    -2.94619  -0.46753  -0.40493
C    -1.89721  -1.40180  -0.74744
C    -2.22057  -2.77736  -0.15798
C    -1.87697  -1.47889  -2.27032
C    -0.60545  -0.82899  -0.10430
C     0.35290  -0.04381  -1.04554
O    -0.31873   1.22588  -1.16284
C    -0.31213   1.53167   0.23600
C     1.15111   1.30688   0.55312
F     1.75762   1.92640   1.56579
C     1.60205   0.30857  -0.22674
C     2.85773  -0.43340  -0.22755
C     3.95932  -0.01375   0.54999
C     5.14901  -0.73974   0.54689
C     5.26890  -1.90206  -0.22495
C     4.18507  -2.33005  -0.99665
C     2.99218  -1.60400  -1.00125
C    -1.07394   0.31184   0.85021
H    -3.91284   3.17624  -0.88599
H    -2.76271   1.96313  -1.57303
H    -4.41593   1.47083  -1.20154
H    -3.12070   0.43737   2.84324
H    -2.82331  -1.22280   2.26001
H    -4.35119  -0.39333   1.84492
H    -3.22280  -3.10011  -0.47868
H    -2.19304  -2.76277   0.94075
H    -1.48672  -3.52076  -0.50571
H    -1.70976  -0.48914  -2.71655
H    -2.84400  -1.86000  -2.63259
H    -1.08823  -2.16273  -2.61676
H    -0.05570  -1.62287   0.41432
H     0.53312  -0.48011  -2.03106
H    -0.71078   2.52822   0.45098
H     3.87831   0.88962   1.15558
H     5.99115  -0.39664   1.15278
H     6.20240  -2.46948  -0.22375
H     4.26664  -3.23628  -1.60152
H     2.15616  -1.95448  -1.60887
H    -0.77750   0.17010   1.89566
