21
Generated by autodE on: 2022-05-30. E = -424.561416 Ha
C     1.96768   0.87321   1.19938
C     1.79456   0.02469  -0.05452
O     2.81878  -0.37032  -0.67541
C     0.48512  -0.30161  -0.47549
C     0.18043  -1.08554  -1.70854
O    -0.48069   0.24423   0.32481
C    -1.75762   0.20770   0.39159
C    -2.62095  -0.61121  -0.50197
C    -2.35182   1.01519   1.48743
H     1.54396   0.37715   2.08711
H     3.04159   1.03782   1.36136
H     1.46482   1.84856   1.10401
H     1.14948  -1.38561  -2.12947
H    -0.34749  -0.49568  -2.47704
H    -0.40191  -2.00204  -1.52555
H    -3.67462  -0.40116  -0.27935
H    -2.43554  -0.40629  -1.56516
H    -2.43808  -1.68522  -0.32964
H    -1.57494   1.51614   2.07916
H    -3.04151   1.76971   1.06897
H    -2.96123   0.36926   2.14434
