23
Generated by autodE on: 2022-05-30. E = -637.959008 Ha
F    -0.82120  -0.74988   2.25784
C    -1.10653  -0.66629   0.95978
C    -0.32092  -0.30834  -0.06929
C     1.07015   0.11583  -0.13597
C     1.92897  -0.01732   0.97824
C     3.25582   0.40217   0.90787
C     3.76016   0.96685  -0.27053
C     2.92105   1.10613  -1.37959
C     1.59129   0.68411  -1.31635
C    -1.34316  -0.28845  -1.24398
C    -2.29239   0.91179  -1.02284
C    -3.03978   0.57089   0.03094
C    -2.53539  -0.83873   0.42902
O    -2.21489  -1.37628  -0.86539
H     1.54833  -0.45730   1.90090
H     3.90408   0.28766   1.78007
H     4.80089   1.29487  -0.32213
H     3.30324   1.54655  -2.30365
H     0.95085   0.80318  -2.19215
H    -0.93250  -0.42943  -2.24855
H    -2.27509   1.83780  -1.59636
H    -3.80339   1.13638   0.56350
H    -3.20489  -1.48134   1.01116
