52
Generated by autodE on: 2022-06-24. E = -1130.725216 Ha
C    -1.99529  -2.97254  -0.58886
C    -1.22022  -1.91524  -0.86823
C    -0.83239  -1.55763  -2.27890
C    -0.68275  -1.06300   0.26443
C     0.72991  -0.51193   0.03566
C     1.81073  -1.54592   0.05253
C     2.89756  -1.57435  -0.74067
C     3.20684  -0.54989  -1.79812
C     3.92680  -2.66176  -0.59666
C     0.84298   0.57628   1.15322
C     1.32667  -0.00281   2.43002
N     1.60707  -0.44388   3.46622
C     1.85583   1.64054   0.66871
O     3.05252   1.54800   0.95091
N     1.31587   2.57506  -0.12000
C     2.13033   3.53320  -0.84007
N    -0.49765   1.08070   1.26637
C    -0.81802   2.03527   2.30718
C    -1.50540   0.20147   0.68683
C    -2.53878  -0.18314   1.79767
C    -3.76816   0.66167   1.99236
O    -2.30266  -1.11734   2.53911
C    -2.15427   0.89834  -0.53230
C    -3.42802   0.34078  -1.10920
O    -1.61478   1.87310  -1.02911
H    -2.24588  -3.23608   0.44263
H    -2.40898  -3.59990  -1.38400
H     0.23964  -1.75847  -2.44470
H    -0.98013  -0.48916  -2.49932
H    -1.40674  -2.14564  -3.00845
H    -0.66245  -1.67891   1.17356
H     0.74481   0.04689  -0.90665
H     1.69456  -2.33049   0.80836
H     3.44259  -1.04521  -2.75506
H     2.39297   0.16612  -1.96988
H     4.10392   0.02515  -1.51146
H     4.91835  -2.22884  -0.37620
H     3.67079  -3.37149   0.20353
H     4.03713  -3.22222  -1.54148
H     0.31748   2.47971  -0.32740
H     2.65568   3.06248  -1.68857
H     1.48825   4.33584  -1.22408
H     2.88589   3.97008  -0.17157
H    -1.03117   1.56488   3.28642
H    -1.68542   2.64217   2.01071
H     0.03017   2.72138   2.44296
H    -3.70562   1.64506   1.51057
H    -4.62593   0.11994   1.56068
H    -3.95522   0.77579   3.06942
H    -3.72022  -0.62027  -0.67116
H    -3.30785   0.23075  -2.19655
H    -4.23156   1.07534  -0.94120
