36
Generated by autodE on: 2022-10-21. E = -953.878883 Ha
C     0.48567   2.52979  -1.41360
O     0.61062   1.10847  -1.41194
C     0.54882   0.44342  -0.17840
C     1.27064   1.19672   1.01799
C     2.68449   1.54365   0.56788
C     3.35586   0.38646   0.58017
C     2.33989  -0.65715   1.01085
O     1.49956   0.09817   1.90451
C     1.39765  -0.87215  -0.21190
C     0.41206  -2.03172  -0.02759
C     0.08225  -2.64974  -1.33265
N    -0.15185  -3.16765  -2.34490
N    -0.71226  -1.43521   0.67554
C    -0.91610  -0.07274   0.20202
C    -1.93911  -0.09129  -0.99690
C    -2.30001   1.13836  -1.77136
O    -2.48016  -1.15514  -1.23718
C    -1.58197   0.79971   1.29580
C    -2.01773   0.12393   2.55897
O    -1.73845   1.99457   1.11413
H    -0.25035   2.88009  -0.67798
H     0.15231   2.82188  -2.41834
H     1.45461   3.01382  -1.21504
H     0.69455   1.98918   1.50019
H     3.02699   2.52861   0.25482
H     4.37762   0.18002   0.26169
H     2.70504  -1.57392   1.48639
H     1.95944  -0.95461  -1.14721
H     0.85707  -2.84044   0.57462
H    -1.56658  -1.98003   0.56327
H    -1.60352   1.21835  -2.61961
H    -3.31665   1.01586  -2.16932
H    -2.22185   2.05254  -1.17622
H    -2.67604  -0.72998   2.33699
H    -2.53298   0.84861   3.20218
H    -1.13183  -0.28181   3.06979
