19
Generated by autodE on: 2022-10-26. E = -531.716918 Ha
C    -1.19087   1.64282  -1.58568
C    -0.20066   0.64849  -1.04008
O     0.60673   0.10523  -1.80472
C    -0.14704   0.36434   0.39078
N     0.75413  -0.56205   0.84798
C     1.40791  -1.57919   0.32041
C     1.18254  -2.18915  -0.93238
N     1.05271  -2.86549  -1.87408
C    -0.87059   1.11057   1.42349
C    -0.58108   0.79712   2.88007
O    -1.71428   1.96381   1.14162
H    -1.07026   1.67882  -2.67670
H    -1.02447   2.64086  -1.15508
H    -2.22022   1.35684  -1.32531
H     0.98169  -0.45342   1.84109
H     2.11079  -2.08399   0.98673
H     0.48676   0.92863   3.12455
H    -1.16599   1.48544   3.50217
H    -0.86222  -0.23859   3.13026
