19
Generated by autodE on: 2022-10-21. E = -531.722485 Ha
C    -1.16339  -2.25249   0.65423
C    -1.55068  -0.81002   0.44558
O    -2.72616  -0.46668   0.59734
C    -0.53185   0.16891   0.07061
N     0.78665  -0.09685  -0.13464
C     1.58417  -1.14197  -0.10627
C     2.95639  -0.96941  -0.40152
N     4.09243  -0.85798  -0.63993
C    -0.77512   1.61083  -0.13945
C    -2.14106   2.20792   0.01004
O     0.18957   2.32705  -0.44693
H    -0.74726  -2.68852  -0.26820
H    -0.40690  -2.35008   1.44948
H    -2.06118  -2.81399   0.94139
H     1.22947   0.81859  -0.37928
H     1.22850  -2.14087   0.13214
H    -2.53400   2.02872   1.02128
H    -2.84803   1.73415  -0.68639
H    -2.07558   3.28570  -0.18842
