17
Generated by autodE on: 2022-10-21. E = -422.092816 Ha
C     2.84862  -0.30531  -0.86277
O     1.70068  -0.99366  -0.37122
C     0.68120  -0.21603   0.01542
C     0.48063   1.11296   0.04405
C    -0.98803   1.23096   0.51060
C    -1.89807   0.69157  -0.62080
C    -1.67581  -0.62599  -0.64807
C    -0.64149  -0.86650   0.47637
O    -1.06545   0.11735   1.43579
H     3.58998  -1.06875  -1.12990
H     2.59029   0.29285  -1.75234
H     3.26264   0.36096  -0.08776
H     1.11569   1.93356  -0.27956
H    -1.28521   2.17423   0.98275
H    -2.51799   1.30525  -1.27436
H    -2.05769  -1.38826  -1.32628
H    -0.56574  -1.87404   0.90045
