36
Generated by autodE on: 2022-10-21. E = -953.808792 Ha. Imaginary frequency = -241.3 cm-1
C     0.76653   1.80250  -2.38648
O     1.20377   0.52313  -1.89337
C     1.39914   0.36533  -0.60854
C     1.42186   1.45993   0.48049
C     2.92393   1.74645   0.69894
C     3.39600   0.64259   1.29012
C     2.18474  -0.30552   1.42127
O     1.12793   0.65413   1.62641
C     1.81645  -0.80897   0.00879
C     0.07118  -2.02426   0.29145
C     0.05864  -2.65407  -1.00107
N     0.24059  -3.34734  -1.91925
N    -0.92502  -1.30299   0.83798
C    -1.68253  -0.22172   0.37349
C    -1.88984  -0.03808  -1.03525
C    -2.72743   1.10936  -1.55676
O    -1.39092  -0.82733  -1.86518
C    -2.26510   0.62279   1.40253
C    -2.01804   0.26810   2.86094
O    -2.94734   1.62869   1.14704
H     0.55176   1.65881  -3.45093
H     1.56723   2.54509  -2.25828
H    -0.13954   2.12770  -1.85935
H     0.73924   2.30723   0.37543
H     3.44622   2.64257   0.36691
H     4.41638   0.39848   1.58419
H     2.21016  -1.05536   2.21901
H     2.38674  -1.57841  -0.51155
H     0.56308  -2.67094   1.02445
H    -0.85110  -1.31437   1.85107
H    -2.69870   1.07205  -2.65454
H    -2.36251   2.08176  -1.20078
H    -3.76857   1.02566  -1.20983
H    -0.94515   0.32900   3.10379
H    -2.56266   0.98628   3.48636
H    -2.36723  -0.74868   3.10555
