65
Generated by autodE on: 2022-12-31. E = -1682.798265 Ha
C   -20.61117 -21.06477  -1.08301
N   -20.73428 -21.86395  -2.28719
C   -20.05515 -21.60439  -3.41458
O   -19.19838 -20.72770  -3.51320
C   -20.33995 -22.55131  -4.63165
C   -19.18051 -23.56917  -4.47055
O   -19.33875 -24.72429  -4.13568
O   -17.98573 -23.00070  -4.57529
C   -16.85748 -23.79243  -4.17368
C   -21.70622 -23.28822  -4.51871
C   -22.32399 -23.84747  -5.80437
C   -21.49914 -24.86170  -6.62400
C   -20.90650 -24.34995  -7.94113
C   -19.71399 -23.38659  -7.87434
O   -19.31601 -22.96853  -9.16826
C   -19.15484 -23.93743 -10.19164
O   -18.64518 -24.06031  -7.24462
C   -17.37469 -23.43323  -7.39815
C   -20.08660 -22.08121  -7.18526
C   -20.31611 -21.73189  -5.90688
C   -20.80638 -20.23525  -5.97936
C   -21.68317 -19.66359  -4.89497
C   -22.99213 -20.16067  -4.78701
C   -23.85515 -19.68511  -3.79805
C   -23.42358 -18.69616  -2.90900
C   -22.12910 -18.18179  -3.02502
C   -21.26339 -18.65897  -4.01205
N   -21.49336 -20.26928  -7.29700
C   -20.37465 -20.81404  -8.00848
C   -20.56893 -20.89587  -9.52324
C   -19.51127 -20.30759 -10.40309
O   -21.62497 -21.33967  -9.93492
O   -19.25561 -19.86851  -7.67268
C   -19.49908 -19.49234  -6.39525
O   -18.78558 -18.72924  -5.79524
H   -19.80873 -20.33204  -1.22298
H   -21.54980 -20.52967  -0.87220
H   -20.36839 -21.70228  -0.21930
H   -21.44182 -22.58956  -2.30103
H   -15.96992 -23.19700  -4.41408
H   -16.83820 -24.74876  -4.71216
H   -16.90717 -23.98352  -3.09163
H   -22.43344 -22.58226  -4.09818
H   -21.58165 -24.10165  -3.78985
H   -22.63129 -23.01432  -6.45490
H   -23.26079 -24.33264  -5.48780
H   -20.70770 -25.31029  -6.00820
H   -22.16276 -25.69466  -6.90243
H   -21.68652 -23.84029  -8.52869
H   -20.57279 -25.21989  -8.52509
H   -18.54998 -23.46071 -10.97561
H   -20.12272 -24.23891 -10.62321
H   -18.62226 -24.82934  -9.82581
H   -16.66044 -24.01920  -6.81009
H   -17.38722 -22.39436  -7.03184
H   -17.04979 -23.43608  -8.44885
H   -23.33372 -20.92683  -5.48330
H   -24.86733 -20.08899  -3.72293
H   -24.09521 -18.32449  -2.13155
H   -21.78506 -17.40431  -2.33907
H   -20.25336 -18.26369  -4.08608
H   -21.69528 -19.31633  -7.61787
H   -19.68235 -20.61870 -11.44170
H   -18.50628 -20.59242 -10.06703
H   -19.58155 -19.20819 -10.33755
