24
Generated by autodE on: 2022-12-31. E = -705.349409 Ha
C    -4.53327   0.17942  -0.06469
C    -3.25638   0.80361  -0.54387
O    -3.20106   1.79873  -1.26687
C    -2.01256   0.18178  -0.11520
N    -0.79113   0.59729  -0.43024
C     0.16919  -0.19490   0.12949
C     1.60023  -0.00468  -0.01335
C     2.12851   1.09080  -0.73008
C     3.50645   1.25376  -0.86002
C     4.38800   0.33489  -0.27907
C     3.87449  -0.75150   0.43679
C     2.49755  -0.92481   0.57140
C    -0.53772  -1.20380   0.86370
O    -0.21308  -2.15935   1.54715
O    -1.91206  -0.90099   0.66429
H    -4.58365  -0.87563  -0.37888
H    -4.56955   0.19074   1.03697
H    -5.38733   0.73422  -0.47260
H    -0.64143   1.41275  -1.02706
H     1.46412   1.82694  -1.18781
H     3.89520   2.10791  -1.41924
H     5.46728   0.46653  -0.38308
H     4.55301  -1.47446   0.89576
H     2.10362  -1.77370   1.12926
