65
Generated by autodE on: 2022-12-31. E = -1682.745192 Ha. Imaginary frequency = -304.6 cm-1
C   -20.17738 -20.60871  -1.03331
N   -20.41298 -21.49507  -2.15742
C   -19.81606 -21.29459  -3.34309
O   -19.00655 -20.38898  -3.53690
C   -20.12872 -22.34362  -4.44728
C   -19.11484 -23.48186  -4.14887
O   -19.41740 -24.59350  -3.77305
O   -17.85921 -23.07292  -4.29725
C   -16.82645 -24.01898  -3.97537
C   -21.58625 -22.89321  -4.37960
C   -22.20160 -23.41607  -5.68666
C   -21.45466 -24.51939  -6.47808
C   -20.91094 -24.12445  -7.86202
C   -19.58145 -23.34978  -7.87182
O   -19.19269 -22.92835  -9.15936
C   -19.20402 -23.88747 -10.20449
O   -18.60188 -24.22140  -7.33456
C   -17.26663 -23.73446  -7.37331
C   -19.73277 -22.12869  -7.01212
C   -19.88247 -21.82378  -5.80983
C   -21.18538 -19.66692  -6.21889
C   -22.11481 -19.41980  -5.12647
C   -23.41813 -19.95802  -5.15668
C   -24.29086 -19.75417  -4.09044
C   -23.88364 -19.01097  -2.97626
C   -22.59683 -18.46550  -2.94263
C   -21.71691 -18.66292  -4.00648
N   -21.52517 -20.20077  -7.41846
C   -20.39128 -20.43557  -8.13387
C   -20.48611 -20.74288  -9.58599
C   -19.34597 -20.31443 -10.45566
O   -21.51636 -21.25679 -10.00227
O   -19.44394 -19.55754  -7.67101
C   -19.84617 -19.11467  -6.40968
O   -19.14582 -18.37127  -5.75425
H   -20.69784 -21.00682  -0.15391
H   -19.10178 -20.53756  -0.81143
H   -20.55260 -19.59389  -1.23842
H   -21.09339 -22.23966  -2.05759
H   -15.88152 -23.53835  -4.25119
H   -16.96681 -24.94783  -4.54366
H   -16.84394 -24.23977  -2.89830
H   -21.60235 -23.68939  -3.62117
H   -22.23381 -22.08408  -4.01751
H   -22.40017 -22.56553  -6.35322
H   -23.19663 -23.79692  -5.40610
H   -20.64140 -24.95197  -5.87919
H   -22.15815 -25.34809  -6.65054
H   -21.64956 -23.51297  -8.40305
H   -20.74908 -25.04027  -8.44965
H   -18.58353 -23.47798 -11.01375
H   -20.22274 -24.05663 -10.59020
H   -18.77170 -24.84724  -9.87951
H   -16.64404 -24.47619  -6.85738
H   -17.17657 -22.76499  -6.85755
H   -16.90686 -23.62212  -8.40812
H   -23.75215 -20.55311  -6.00814
H   -25.29487 -20.18247  -4.12715
H   -24.56858 -18.85689  -2.13954
H   -22.27259 -17.88034  -2.07936
H   -20.71202 -18.24769  -3.97099
H   -22.37852 -20.72041  -7.61770
H   -19.39452 -20.84329 -11.41605
H   -18.37969 -20.48576  -9.96440
H   -19.44336 -19.22981 -10.63795
