72
Generated by autodE on: 2022-10-24. E = -1596.850979 Ha
C    -0.06738  48.91985  41.25833
O     0.19852  47.82172  42.14266
C     0.59637  46.67580  41.58040
O     0.73387  46.54078  40.38052
C     0.71444  45.55685  42.61998
N    -0.45079  44.67549  42.55083
C    -0.07347  43.45884  41.80755
C    -0.63835  43.40332  40.39275
C    -1.97626  43.01443  40.22669
C    -2.56344  42.97763  38.95860
C    -1.81137  43.31859  37.83024
C    -0.47358  43.69790  37.98402
C     0.10587  43.74251  39.25470
C     1.44213  43.44078  41.93052
C     1.90212  44.62574  42.39326
C     3.28489  45.13601  42.85182
C     3.53241  44.72446  44.31930
C     4.79305  44.96352  44.89579
C     5.05472  44.63214  46.22470
C     4.05544  44.05594  47.01839
C     2.79663  43.82524  46.46330
C     2.54033  44.15931  45.12759
C     3.27270  46.69093  42.78726
C     3.51202  47.35689  41.57308
C     3.48741  48.75103  41.49453
C     3.21872  49.51790  42.63141
C     2.97421  48.87155  43.84456
C     3.00515  47.47631  43.91987
C     4.49079  44.66683  41.96789
C     5.04754  43.25342  42.19884
C     4.73249  42.25820  41.08211
C     3.29437  42.28397  40.56956
C     2.16639  42.12404  41.61656
O     1.14524  41.26778  41.12030
C     1.52170  39.95289  40.74631
O     2.72481  41.54795  42.78642
C     1.80472  41.15467  43.79423
H    -0.93749  48.69368  40.62432
H     0.80537  49.12457  40.62442
H    -0.27913  49.78232  41.90054
H     0.77806  46.04214  43.60488
H    -1.26236  45.13171  42.13875
H    -0.48407  42.58139  42.33073
H    -2.56334  42.73097  41.10499
H    -3.60767  42.67348  38.85096
H    -2.26312  43.28425  36.83585
H     0.12428  43.96044  37.10749
H     1.14576  44.04989  39.36284
H     5.58363  45.42092  44.29888
H     6.04530  44.82445  46.64430
H     4.25900  43.79343  48.05922
H     2.00147  43.38132  47.06729
H     1.54924  43.96979  44.72035
H     3.69632  46.78562  40.66402
H     3.67279  49.23868  40.53453
H     3.19524  50.60838  42.56991
H     2.75662  49.45360  44.74339
H     2.80743  46.99660  44.87808
H     5.29505  45.39216  42.14530
H     4.21540  44.79694  40.91313
H     6.14193  43.31786  42.30721
H     4.67661  42.85648  43.14958
H     5.38155  42.46233  40.21307
H     4.98667  41.24235  41.42365
H     3.18623  41.48141  39.82841
H     3.10503  43.21506  40.02035
H     0.62501  39.32409  40.84599
H     1.86525  39.90380  39.69912
H     2.31132  39.55001  41.39934
H     2.39592  40.94672  44.69638
H     1.25266  40.24376  43.51013
H     1.07892  41.94755  44.02777
