24
Generated by autodE on: 2022-10-24. E = -593.148993 Ha
C     4.93383   1.63350   0.60928
O     4.09877   0.50222   0.37045
C     2.75856   0.74379   0.30901
O     2.29159   1.88360   0.45193
C     1.99705  -0.42949   0.07015
N     0.64870  -0.27176  -0.00193
C    -0.30301  -1.15686  -0.20940
C    -1.71334  -0.84373  -0.25592
C    -2.61801  -1.90336  -0.49618
C    -3.99139  -1.67410  -0.55208
C    -4.49888  -0.38293  -0.36963
C    -3.61445   0.67724  -0.13095
C    -2.24056   0.45647  -0.07390
H     4.69810   2.10701   1.57511
H     4.82688   2.38449  -0.18893
H     5.96406   1.25593   0.62510
H     2.42569  -1.42126  -0.05327
H     0.37285   0.70974   0.13142
H     0.01817  -2.19083  -0.35152
H    -2.22530  -2.91307  -0.63861
H    -4.67131  -2.50864  -0.73909
H    -5.57514  -0.20179  -0.41238
H    -4.00129   1.68884   0.01301
H    -1.58111   1.30688   0.11515
