48
Generated by autodE on: 2022-10-24. E = -1003.619300 Ha
C    -3.77406  -2.05466   0.93182
O    -2.54354  -2.74352   1.10223
C    -1.61343  -2.59599   0.05045
O    -2.13616  -3.09238  -1.16669
C    -2.44310  -4.48128  -1.19685
C    -1.24797  -1.18161  -0.16459
C    -0.54333  -0.20167  -0.05845
C     0.56329   0.68268   0.31232
C     1.56372   0.85433  -0.84911
C     2.65464   1.72308  -0.68452
C     3.59956   1.88293  -1.69885
C     3.46862   1.17865  -2.90157
C     2.38590   0.31465  -3.07467
C     1.44063   0.15327  -2.05457
C     0.03675   2.06661   0.72562
C    -0.90824   2.69999  -0.09712
C    -1.38990   3.97236   0.21218
C    -0.93047   4.63728   1.35503
C     0.01079   4.01604   2.17821
C     0.49165   2.73827   1.86711
C     1.25426  -0.08693   1.49054
C     1.55794  -1.57746   1.23210
C     0.47764  -2.62687   1.62172
C    -0.32359  -3.31657   0.49886
H    -3.61272  -0.96644   0.83618
H    -4.37673  -2.25023   1.82898
H    -4.31997  -2.41086   0.04329
H    -3.05199  -4.64900  -2.09616
H    -1.53512  -5.10339  -1.26478
H    -3.02368  -4.78802  -0.31231
H     2.76512   2.28503   0.24510
H     4.44111   2.56409  -1.55096
H     4.20646   1.30542  -3.69731
H     2.27041  -0.24106  -4.00846
H     0.60023  -0.52670  -2.20045
H    -1.26729   2.18605  -0.99240
H    -2.12712   4.44682  -0.44009
H    -1.30591   5.63336   1.60109
H     0.37706   4.52495   3.07316
H     1.22864   2.27662   2.52397
H     0.61202   0.00431   2.38021
H     2.19278   0.43839   1.71950
H     1.85870  -1.72067   0.18058
H     2.45643  -1.80927   1.82426
H    -0.22615  -2.19185   2.35044
H     0.99437  -3.43399   2.16324
H    -0.62484  -4.31938   0.83773
H     0.30620  -3.44576  -0.39510
