72
Generated by autodE on: 2022-10-24. E = -1596.770128 Ha. Imaginary frequency = -257.5 cm-1
C     0.73763  48.76874  44.46964
O     0.71950  47.36547  44.19773
C     0.41370  46.98904  42.93891
O     0.21806  47.79253  42.03138
C     0.33350  45.54662  42.81027
N    -0.26495  45.08694  41.68008
C    -0.43273  43.78975  41.42363
C    -0.93448  43.33506  40.13164
C    -1.65885  42.12887  40.06465
C    -2.13706  41.65044  38.84534
C    -1.90304  42.36866  37.66688
C    -1.18437  43.56885  37.72149
C    -0.69939  44.04700  38.93861
C     1.94071  43.36401  41.82614
C     2.30934  44.38491  42.44231
C     3.44446  45.21991  42.94775
C     3.46888  45.28680  44.48185
C     4.54287  45.90578  45.14703
C     4.60901  45.93935  46.54129
C     3.60821  45.33654  47.31029
C     2.55452  44.68738  46.66472
C     2.49222  44.66004  45.26753
C     3.39457  46.59687  42.24869
C     3.15001  46.62371  40.86326
C     3.11196  47.82416  40.15572
C     3.32428  49.03819  40.81844
C     3.56980  49.02671  42.19124
C     3.59938  47.81871  42.89948
C     4.75922  44.50469  42.47670
C     4.87733  43.04939  42.96204
C     4.92430  42.00622  41.83982
C     3.81531  42.05554  40.78259
C     2.35750  42.03151  41.28446
O     1.47427  41.72583  40.21732
C     1.60912  40.46796  39.57892
O     2.29177  41.03060  42.28524
C     1.04276  40.87751  42.94148
H    -0.27549  49.18969  44.37827
H     1.41163  49.29781  43.78352
H     1.09390  48.87313  45.50146
H     0.18517  44.96360  43.71429
H    -0.27254  45.74725  40.89939
H    -0.57167  43.14469  42.28885
H    -1.83743  41.56498  40.98329
H    -2.69627  40.71231  38.81303
H    -2.27453  41.99362  36.71050
H    -0.98880  44.13059  36.80491
H    -0.11106  44.96822  38.95157
H     5.34813  46.36502  44.57270
H     5.45285  46.43389  47.02858
H     3.65899  45.36107  48.40141
H     1.77521  44.18995  47.24724
H     1.67904  44.12077  44.78470
H     2.96695  45.68698  40.33420
H     2.90962  47.81202  39.08186
H     3.29300  49.98191  40.26886
H     3.72940  49.96484  42.72838
H     3.76000  47.85049  43.97510
H     5.61246  45.10876  42.81649
H     4.78019  44.54578  41.37854
H     5.78526  42.93398  43.57512
H     4.03790  42.81199  43.63192
H     5.88246  42.10138  41.29974
H     4.93099  41.00410  42.29730
H     3.95458  41.18505  40.12428
H     3.91351  42.94555  40.14362
H     0.64627  40.26060  39.08903
H     2.39842  40.47268  38.80747
H     1.81972  39.66202  40.29943
H     1.12696  39.98723  43.57999
H     0.21961  40.72698  42.22452
H     0.81158  41.75015  43.57594
