30
Generated by autodE on: 2022-06-02. E = -841.225433 Ha
F     0.21829  -0.94073  -1.98197
C    -0.73721  -1.41819  -1.15643
F    -1.83607  -1.61286  -1.91721
F    -0.32060  -2.65324  -0.77471
C    -1.03697  -0.52617  -0.00297
C    -0.20609   0.31367   0.66553
C     1.24197   0.52204   0.55020
C     1.78403   1.80798   0.74653
C     3.15861   2.02693   0.64071
C     4.02124   0.96347   0.35749
C     3.49801  -0.32267   0.18379
C     2.12418  -0.54314   0.27942
C    -1.10765   1.17027   1.55127
C    -1.89159   2.11870   0.58505
C    -2.83625   1.14351  -0.17249
C    -2.46332  -0.24211   0.44720
C    -2.20745   0.15430   1.91341
H     1.12095   2.64612   0.96784
H     3.55822   3.03370   0.78370
H     5.09770   1.13385   0.28143
H     4.16636  -1.16260  -0.02024
H     1.73319  -1.55508   0.16872
H    -0.59629   1.68119   2.37560
H    -1.21382   2.66903  -0.08220
H    -2.46028   2.85555   1.17108
H    -2.68526   1.15100  -1.26094
H    -3.89425   1.37223   0.02461
H    -3.18919  -1.04030   0.25217
H    -3.08124   0.61673   2.39736
H    -1.83768  -0.68069   2.52639
