45
Generated by autodE on: 2022-05-31. E = -1221.263459 Ha
C    -4.21862   0.49438  -2.54909
N    -3.38135  -0.04558  -1.49821
C    -2.99575   0.67000  -0.43642
O    -3.34646   1.83744  -0.22081
C    -2.05104  -0.04201   0.54438
C    -2.63769   0.05187   1.95267
O    -1.91293  -1.40631   0.13346
C    -0.58769  -1.89776   0.34695
C    -0.27417  -2.88128  -0.78241
C    -0.51885  -2.71618   1.65761
C    -1.76465  -3.43786   2.08704
O     0.53008  -2.80358   2.27121
C     0.33466  -0.65869   0.42174
C     1.11381  -0.33308  -0.88640
O     0.09805   0.26934  -1.70019
C    -0.23316   1.32632  -0.80260
C     1.15317   1.91827  -0.51836
C     1.41483   3.25530  -0.13915
N     1.57539   4.36873   0.16035
C     1.99641   0.86381  -0.56397
C     3.42259   0.84889  -0.19624
O     4.09202   1.84573  -0.00365
O     3.88133  -0.40010  -0.09259
C     5.25891  -0.55408   0.28383
C    -0.62256   0.56564   0.50513
H    -3.62951   1.05942  -3.29130
H    -4.73303  -0.32713  -3.06426
H    -4.96775   1.17313  -2.11917
H    -2.98073  -0.97507  -1.58367
H    -1.93684  -0.36662   2.68992
H    -2.82097   1.10470   2.20559
H    -3.58791  -0.49950   2.00554
H    -0.38046  -2.37559  -1.75156
H     0.74847  -3.27062  -0.68206
H    -0.97607  -3.72709  -0.75557
H    -2.28563  -3.88620   1.22928
H    -1.50990  -4.20379   2.83110
H    -2.45967  -2.71346   2.53958
H     1.02166  -0.75342   1.26808
H     1.60228  -1.16846  -1.39176
H    -0.97632   2.01114  -1.21811
H     5.91220  -0.08280  -0.46436
H     5.44100  -1.63368   0.32480
H     5.43832  -0.09711   1.26754
H    -0.45661   1.19810   1.38348
