25
Generated by autodE on: 2022-07-27. E = -593.341891 Ha
C    -1.71216   1.96628  -3.03706
N    -1.02917   1.22269  -2.00088
C    -1.04999   1.58222  -0.70053
O    -1.70011   2.53966  -0.25610
C    -0.23994   0.74236   0.22111
C    -0.14040   1.03052   1.65054
O     0.50105  -0.14672  -0.36657
C     1.23525  -1.12089   0.21458
C     2.40984  -1.53239  -0.61073
C     0.71161  -1.82372   1.33717
C     1.58200  -2.91492   1.92795
O    -0.44803  -1.63616   1.77327
H    -2.19433   1.27533  -3.74355
H    -2.47941   2.60170  -2.57858
H    -1.01802   2.61115  -3.60253
H    -0.44303   0.43855  -2.26865
H    -0.51365   2.04017   1.85511
H     0.91834   0.91456   1.95709
H    -0.68701   0.28190   2.25790
H     2.24611  -1.22758  -1.65618
H     2.57659  -2.61841  -0.58584
H     3.34257  -1.04471  -0.27270
H     1.16703  -3.20711   2.90217
H     1.58429  -3.80277   1.27292
H     2.62693  -2.59354   2.05167
