25
Generated by autodE on: 2022-05-31. E = -593.347535 Ha
C     3.03155  -0.35481   2.06753
N     1.87613  -0.24153   1.20341
C     1.94503  -0.57246  -0.10453
O     2.99419  -0.98924  -0.62549
C     0.71168  -0.42586  -0.91049
C     0.70775  -0.75479  -2.35917
O    -0.30873   0.02437  -0.24546
C    -1.57997   0.31125  -0.50335
C    -2.22521   0.11343  -1.83131
C    -2.29450   0.81562   0.64297
C    -1.55512   0.96720   1.95746
O    -3.49726   1.12372   0.55773
H     3.40363  -1.39147   2.10786
H     2.74769  -0.04354   3.08019
H     3.85993   0.28419   1.72043
H     1.00258   0.09900   1.58609
H     0.53083   0.14068  -2.97636
H    -0.06083  -1.49892  -2.61272
H     1.69119  -1.16337  -2.61719
H    -2.25497  -0.94647  -2.12926
H    -3.25899   0.46999  -1.74339
H    -1.73249   0.68178  -2.63395
H    -0.69684   1.64986   1.85557
H    -1.16816  -0.00281   2.30814
H    -2.24891   1.36934   2.70674
