45
Generated by autodE on: 2022-05-31. E = -1221.136294 Ha. Imaginary frequency = -97.9 cm-1
C    -3.49731   0.96663  -2.68600
N    -3.09193   0.07820  -1.61723
C    -3.24911   0.42880  -0.32004
O    -3.88453   1.43785   0.02720
C    -2.59747  -0.44031   0.68979
C    -2.77724  -0.18906   2.13776
O    -1.98624  -1.47081   0.16950
C    -1.08444  -2.35081   0.60517
C    -0.36303  -3.05719  -0.50194
C    -1.16336  -2.93843   1.93402
C     0.03856  -3.73665   2.38563
O    -2.18303  -2.87937   2.63409
C     0.54274  -0.11188   0.92958
C     1.27109  -0.29388  -0.41672
O     0.22028   0.04154  -1.34099
C    -0.09728   1.30771  -0.75611
C     1.31606   1.96549  -0.81981
C     1.57722   3.34138  -0.98732
N     1.73805   4.48567  -1.13568
C     2.17409   0.94634  -0.60098
C     3.63630   1.01886  -0.46174
O     4.29491   2.02585  -0.64458
O     4.15060  -0.16134  -0.10548
C     5.57414  -0.21884   0.07255
C    -0.31515   0.91149   0.71511
H    -3.40091   0.44094  -3.64428
H    -4.54459   1.27509  -2.55548
H    -2.87731   1.88007  -2.72114
H    -2.43820  -0.66853  -1.82726
H    -3.16488   0.82800   2.26766
H    -1.83196  -0.29850   2.68478
H    -3.48277  -0.91017   2.58185
H    -0.36951  -2.44366  -1.41098
H    -0.82393  -4.03495  -0.73334
H     0.68242  -3.25322  -0.22489
H    -0.04924  -3.93049   3.46307
H     0.06173  -4.70572   1.85878
H     0.98537  -3.22001   2.16915
H     0.85672  -0.56679   1.86602
H     1.73405  -1.25825  -0.63497
H    -0.89786   1.83469  -1.28243
H     6.08644   0.03858  -0.86567
H     5.88828   0.47679   0.86394
H     5.80029  -1.25163   0.36018
H    -0.86181   1.51819   1.43169
