28
Generated by autodE on: 2022-06-23. E = -819.896304 Ha
C    -2.17782   3.50281   0.35663
O    -1.54618   2.22680   0.23061
C    -2.36800   1.15125   0.14874
O    -3.58659   1.25531   0.17889
C    -1.61982  -0.08368   0.02281
N    -0.27247  -0.01387   0.00214
C     0.88816   0.04573  -0.01623
C     2.30032   0.11853  -0.03646
C     3.06140  -1.00544   0.35011
C     4.45065  -0.92355   0.31937
C     5.08013   0.26350  -0.07383
C     4.32027   1.37794  -0.44863
C     2.92967   1.31485  -0.44204
C    -2.23940  -1.38958  -0.08117
O    -3.44104  -1.61823  -0.07453
O    -1.31491  -2.37584  -0.18755
C    -1.81878  -3.70971  -0.29031
H    -2.81278   3.71517  -0.51667
H    -2.79272   3.54891   1.26796
H    -1.36621   4.23813   0.41581
H     2.55615  -1.92049   0.66234
H     5.04726  -1.79038   0.61030
H     6.17063   0.32043  -0.08852
H     4.81570   2.30147  -0.75461
H     2.32404   2.17210  -0.73933
H    -2.44840  -3.82436  -1.18538
H    -0.93948  -4.36085  -0.36581
H    -2.40766  -3.97693   0.59999
