25
Generated by autodE on: 2022-05-29. E = -464.923986 Ha
C     2.55753  -1.29304  -0.21895
C     1.82515   0.01225  -0.42289
O     2.36908   0.94342  -1.02423
C     0.47009   0.10352   0.13217
C    -0.49253   1.02303  -0.17053
C    -0.47401   2.18311  -1.09867
C    -1.76739   0.56417   0.51098
C    -2.23539  -0.69501  -0.29442
C    -1.15694  -1.75772   0.06073
C    -0.19571  -0.96540   1.00037
C    -1.20269  -0.09956   1.78170
H     2.75036  -1.45018   0.85518
H     3.51186  -1.27455  -0.76160
H     1.94524  -2.14314  -0.55959
H    -0.66895   3.11497  -0.53853
H    -1.29686   2.08954  -1.82882
H     0.47982   2.28295  -1.62765
H    -2.53774   1.33775   0.62619
H    -3.23472  -1.00250   0.04778
H    -2.29989  -0.48582  -1.37206
H    -1.59814  -2.61250   0.59536
H    -0.63073  -2.14806  -0.82207
H     0.48243  -1.59327   1.58974
H    -0.71767   0.61645   2.46193
H    -1.95182  -0.68847   2.33345
