67
Generated by autodE on: 2022-06-27. E = -1721.926776 Ha
C     2.25246   1.25270   3.32804
N     1.69517   0.43500   2.27026
C     2.01475   0.56379   0.98141
O     2.91132   1.28783   0.53973
C     1.17078  -0.28018  -0.01325
C     2.16605  -1.19865  -0.71425
C     2.42301  -2.45655  -0.15307
C     3.38622  -3.29968  -0.71425
C     4.11180  -2.88756  -1.83479
C     3.87167  -1.62423  -2.38453
C     2.90910  -0.77999  -1.82634
O     0.19491  -1.06070   0.69372
C    -1.16087  -0.73092   0.36753
C    -2.03170  -0.97264   1.62477
O    -3.22330  -0.65570   1.65242
N    -1.43928  -1.66440   2.60828
C    -2.14836  -2.00492   3.82604
C    -1.73020  -1.66888  -0.70267
C    -1.01268  -2.80689  -1.09184
C    -1.53713  -3.69172  -2.03624
C    -2.79484  -3.45832  -2.59978
C    -3.52662  -2.33812  -2.19752
C    -3.00352  -1.45251  -1.25093
C    -1.00184   0.76200  -0.10055
O    -1.99297   1.29614  -0.92826
C    -3.13027   1.92837  -0.33735
C    -0.78166   1.70735   1.10910
O    -1.28143   1.45816   2.19361
C    -0.02503   2.95646   0.88549
C    -0.08860   3.99450   1.96197
C     0.77234   3.11113  -0.20892
C     1.60549   4.33625  -0.40256
C     0.92049   2.03722  -1.22090
O     1.50605   2.23091  -2.27271
C     0.30899   0.64969  -0.94378
O     0.13113  -0.06091  -2.13027
C    -0.64209   0.45108  -3.21398
H     1.44839   1.81773   3.82356
H     2.97620   1.95428   2.89743
H     2.76037   0.63094   4.08104
H     0.90101  -0.15973   2.48501
H     1.86736  -2.77890   0.72782
H     3.56981  -4.28047  -0.26939
H     4.86365  -3.54577  -2.27652
H     4.43573  -1.29111  -3.25893
H     2.72874   0.19775  -2.26924
H    -0.46192  -1.91351   2.50515
H    -1.48857  -2.60492   4.46426
H    -3.05691  -2.58596   3.60463
H    -2.44950  -1.09935   4.37690
H    -0.03077  -2.99553  -0.66488
H    -0.95598  -4.56861  -2.33164
H    -3.20466  -4.14820  -3.34130
H    -4.51620  -2.14788  -2.61980
H    -3.59978  -0.60029  -0.93711
H    -3.58199   1.29904   0.44042
H    -2.86460   2.91057   0.08711
H    -3.84688   2.07984  -1.15501
H     0.90091   4.11271   2.43479
H    -0.81518   3.72093   2.73527
H    -0.35998   4.97582   1.54265
H     2.43767   4.33305   0.32261
H     2.02923   4.36998  -1.41280
H     1.02192   5.25021  -0.21858
H    -1.64874   0.00831  -3.20177
H    -0.73372   1.54341  -3.19767
H    -0.12519   0.15024  -4.13744
