67
Generated by autodE on: 2022-06-27. E = -1721.859966 Ha. Imaginary frequency = -277.7 cm-1
C     4.38498   1.17059   1.92575
N     3.50771   0.39728   1.06861
C     2.21903   0.19270   1.37836
O     1.71905   0.57622   2.44586
C     1.37292  -0.55865   0.37137
C     1.98714  -1.54519  -0.53424
C     1.71284  -2.91374  -0.34223
C     2.32241  -3.87551  -1.14624
C     3.21327  -3.48977  -2.15235
C     3.50141  -2.13414  -2.34227
C     2.89714  -1.16625  -1.54024
O     0.20205  -0.79347   0.94232
C    -1.04717  -1.01227   0.49695
C    -2.01532  -0.67125   1.59911
O    -3.23557  -0.84314   1.46504
N    -1.47943  -0.12131   2.70463
C    -2.32185   0.36427   3.77764
C    -1.37208  -2.12005  -0.43274
C    -0.83387  -2.20913  -1.73115
C    -1.13431  -3.29422  -2.55504
C    -1.96843  -4.31798  -2.10167
C    -2.50214  -4.24985  -0.81012
C    -2.21357  -3.16299   0.01285
C    -1.06437   0.86305  -0.90721
O    -1.80765   0.44969  -1.95814
C    -3.19025   0.09105  -1.84790
C    -1.65432   1.76943   0.12146
O    -2.87068   1.89890   0.23340
C    -0.73341   2.55565   0.98564
C    -1.32468   3.24521   2.17644
C     0.56760   2.73193   0.63945
C     1.47414   3.63646   1.41366
C     1.13088   2.05176  -0.55960
O     2.23907   2.36324  -1.00821
C     0.32625   1.00565  -1.19856
O     0.77194   0.52975  -2.39685
C     0.65352   1.42224  -3.51331
H     4.33334   0.80410   2.96133
H     4.11186   2.23792   1.92537
H     5.41422   1.06803   1.56120
H     3.85754   0.08493   0.16990
H     1.03293  -3.22092   0.45258
H     2.09956  -4.93237  -0.98424
H     3.68694  -4.24438  -2.78435
H     4.19637  -1.82509  -3.12605
H     3.10032  -0.11116  -1.71825
H    -0.47617   0.06136   2.72251
H    -2.80278  -0.46760   4.31825
H    -3.11755   1.01755   3.38960
H    -1.70512   0.93159   4.48463
H    -0.18680  -1.42666  -2.11326
H    -0.70481  -3.33799  -3.55825
H    -2.19986  -5.16782  -2.74807
H    -3.14427  -5.05120  -0.43756
H    -2.63420  -3.12930   1.01621
H    -3.41345  -0.38406  -0.88680
H    -3.82701   0.97740  -1.97495
H    -3.37658  -0.61806  -2.66591
H    -0.77909   2.96406   3.09113
H    -2.38372   2.99495   2.29984
H    -1.23457   4.34000   2.07880
H     1.55765   3.29607   2.45717
H     2.47533   3.66454   0.96844
H     1.07043   4.66200   1.44185
H     1.01976   0.87026  -4.38886
H     1.27027   2.32043  -3.36235
H    -0.39598   1.71102  -3.67292
