36
Generated by autodE on: 2022-06-17. E = -725.778116 Ha
C    -1.07649   2.30251  -1.74903
C    -0.99189   1.06052  -0.87600
C    -0.11047   1.22169   0.36887
C     1.39011   1.10504   0.11032
C     1.78444  -0.32903  -0.14677
C     3.02387  -0.70730  -0.82869
N     3.85593   0.30669  -1.18920
O     3.33749  -1.89075  -1.08517
C     0.97993  -1.33726   0.30865
N    -0.18531  -1.18125   0.97619
C    -0.90714  -2.32341   1.50629
C    -0.70914   0.15138   1.29145
N    -2.14429   0.22054   1.03537
C    -2.83901   1.12428   1.94477
N    -2.31225   0.66272  -0.33719
C    -2.96058  -0.36278  -1.13585
H    -1.45831   3.15952  -1.17180
H    -0.08401   2.56433  -2.14984
H    -1.74763   2.13720  -2.60647
H    -0.57661   0.23319  -1.48472
H    -0.32707   2.19894   0.82619
H     1.64481   1.74764  -0.74888
H     1.94447   1.51929   0.97214
H     3.68165   1.27114  -0.93798
H     4.73891   0.07235  -1.62837
H     1.28302  -2.37270   0.13899
H    -1.09005  -2.19848   2.58730
H    -1.88210  -2.45407   1.01372
H    -0.30809  -3.23164   1.35934
H    -0.53092   0.36093   2.35852
H    -2.45788   2.16455   1.91491
H    -3.90725   1.14611   1.68645
H    -2.74814   0.74685   2.97458
H    -3.10342   0.01659  -2.15981
H    -3.95477  -0.59340  -0.72503
H    -2.37847  -1.30460  -1.19729
