16
Generated by autodE on: 2022-06-17. E = -268.004808 Ha
C     1.89981  -1.09533   0.65932
C     0.49729  -0.87720   0.19336
N    -0.01227   0.33237  -0.01468
C     0.85172   1.50001   0.22695
N    -1.22767   0.65769  -0.42365
C    -2.05320  -0.48827  -0.65642
H     2.10478  -0.63788   1.64468
H     2.08552  -2.17459   0.75330
H     2.65541  -0.68974  -0.03832
H    -0.15272  -1.72833   0.01083
H     0.26276   2.39456   0.00795
H     1.73293   1.45781  -0.42674
H     1.18452   1.51268   1.27305
H    -3.04242  -0.14621  -0.99168
H    -2.19922  -1.12139   0.24862
H    -1.64805  -1.17627  -1.43349
