20
Generated by autodE on: 2022-06-17. E = -457.715308 Ha
C    -3.09079   0.53212   0.51713
N    -1.82304  -0.07045   0.13983
C    -1.80089  -1.38387  -0.34544
C    -0.66438  -2.01022  -0.68904
C     0.69568  -1.36430  -0.59014
C     0.57394   0.04855  -0.04208
C     1.75994   0.89431   0.16664
N     2.95281   0.34434  -0.17377
O     1.70696   2.05226   0.62962
C    -0.63761   0.58605   0.27666
H    -3.56868  -0.02739   1.33807
H    -2.91643   1.56234   0.85165
H    -3.78653   0.55365  -0.33707
H    -2.77938  -1.86127  -0.42297
H    -0.72819  -3.03558  -1.06037
H     1.18885  -1.36330  -1.58417
H     1.36336  -1.97973   0.04698
H     3.03724  -0.58735  -0.55933
H     3.79480   0.89486  -0.04646
H    -0.69620   1.60322   0.66707
