32
Generated by autodE on: 2022-06-17. E = -814.696255 Ha
C     3.69778   1.92918  -2.03800
N     3.55337   0.48116  -2.03832
C     2.54387  -0.23249  -1.51080
O     2.49733  -1.46547  -1.57786
C     1.45390   0.56110  -0.78270
N     1.98759   0.91160   0.58429
N     1.47706   0.21708   1.46732
C     0.51772  -0.78639   0.89242
C     0.18314  -0.23296  -0.49449
C    -1.06183   0.67035  -0.49536
C    -2.17395   0.08018   0.33076
C    -3.59339   0.38877   0.11149
N    -3.87900   1.27179  -0.87957
O    -4.51411  -0.11668   0.78642
C    -1.85681  -0.70987   1.39595
N    -0.59484  -1.06230   1.75684
C    -0.35118  -1.98346   2.85528
H     2.95631   2.41863  -2.68968
H     4.69824   2.17387  -2.41528
H     3.60469   2.34095  -1.02443
H     4.26670  -0.06960  -2.50995
H     1.26363   1.50489  -1.30903
H     1.12040  -1.70418   0.79819
H     0.05648  -1.06199  -1.19958
H    -1.36653   0.82213  -1.54201
H    -0.78738   1.66824  -0.10580
H    -4.84838   1.52328  -1.03774
H    -3.16098   1.74847  -1.40955
H    -2.65015  -1.10268   2.03478
H    -0.08658  -2.98928   2.48402
H     0.47740  -1.62051   3.48157
H    -1.25059  -2.05931   3.47943
