12
Generated by autodE on: 2022-06-17. E = -356.941447 Ha
C    -2.64346   1.07625   0.40490
N    -1.62591   0.38871  -0.36024
C    -0.36915   0.16899   0.09560
O     0.03457   0.53043   1.21094
C     0.49386  -0.54502  -0.85452
N     1.71732  -0.80016  -0.48765
N     2.77691  -1.00709  -0.13857
H    -2.21802   1.37726   1.36931
H    -3.51223   0.42463   0.59206
H    -2.99640   1.97805  -0.12084
H    -1.86473   0.05312  -1.28773
H     0.19688  -0.88408  -1.84773
