44
Generated by autodE on: 2022-06-01. E = -3553.258739 Ha
C     4.06266  -2.91294  -1.42865
O     2.92617  -2.04980  -1.59250
C     1.89457  -2.24974  -0.77071
O     1.84793  -3.14227   0.05113
C     0.81778  -1.21161  -0.97199
N    -0.43768  -1.65619  -0.40826
C    -1.27003  -0.48752  -0.20916
C    -2.19957  -0.25018  -1.43418
C    -2.29394  -1.34614  -2.45515
O    -2.88441   0.75260  -1.50760
C    -2.23687  -0.79467   0.98663
C    -3.41110   0.10252   1.25429
O    -2.04688  -1.80594   1.63170
C    -0.26783   0.73054   0.07723
Br   -0.39626   1.18473   2.04263
C    -0.39844   2.01287  -0.77440
C     0.60733   3.09628  -0.31998
C     1.98727   2.54404  -0.77746
C     1.61426   1.19335  -1.41418
C     0.27676   1.55209  -2.08646
C     1.16953   0.17750  -0.32453
C     2.17558   0.00105   0.81039
H     4.80118  -2.58280  -2.16783
H     4.47066  -2.81642  -0.41223
H     3.77931  -3.95884  -1.61334
H     0.71352  -1.07517  -2.05822
H    -0.28470  -2.11228   0.49296
H    -2.99595  -1.04274  -3.24239
H    -2.64701  -2.26771  -1.96678
H    -1.31104  -1.57829  -2.88893
H    -4.25979  -0.27446   0.65844
H    -3.67648   0.02608   2.31664
H    -3.23767   1.14416   0.96764
H    -1.42661   2.37315  -0.85283
H     0.36229   4.03504  -0.83733
H     0.55710   3.29321   0.75746
H     2.44156   3.19614  -1.53791
H     2.70996   2.45216   0.04348
H     2.39102   0.76752  -2.06381
H    -0.21148   0.71581  -2.60262
H     0.36801   2.37839  -2.80658
H     3.15457  -0.27648   0.39128
H     2.30888   0.91768   1.39497
H     1.85977  -0.79078   1.50356
