20
Generated by autodE on: 2022-06-01. E = -2885.785262 Ha
C     2.18008  -1.17961   0.54365
C     0.77835  -0.76744   0.81902
C     0.00415   0.16411   0.23427
Br    0.47271   1.28939  -1.22133
C    -1.42407   0.03045   0.73110
C    -1.96421  -1.30159   0.11956
C    -1.09023  -2.38061   0.82351
C    -0.16458  -1.52887   1.75232
C    -1.13893  -0.41309   2.18124
H     2.20807  -2.21700   0.16535
H     2.65815  -0.52866  -0.20258
H     2.78674  -1.16547   1.46515
H    -2.06745   0.90562   0.57995
H    -3.03056  -1.42585   0.36154
H    -1.86377  -1.31087  -0.97529
H    -1.70642  -3.06509   1.42601
H    -0.50605  -2.98902   0.11784
H     0.33560  -2.10023   2.54579
H    -2.03315  -0.79050   2.70174
H    -0.65822   0.37199   2.78313
