54
Generated by autodE on: 2022-06-04. E = -1302.838295 Ha
C    -2.14173   3.42869   1.66250
O    -1.11298   2.68380   0.99316
C    -1.30672   2.41687  -0.29386
O    -2.24463   2.84675  -0.93783
C    -0.29379   1.46828  -0.90509
N     0.93898   1.28985  -0.16665
C     1.77185   2.48093  -0.06620
C     1.59447   0.08828  -0.68706
C     2.34965   0.44267  -1.92449
N     2.96794   0.81185  -2.83491
C     2.60608  -0.48907   0.30953
C     2.47944  -0.22290   1.67853
C     3.36034  -0.80330   2.59472
C     4.37381  -1.65932   2.15351
C     4.50373  -1.92778   0.78767
C     3.62667  -1.34252  -0.12900
C     0.39112  -0.90828  -1.01651
C     0.35590  -2.11373  -0.08138
C     0.39441  -1.38357  -2.51568
C    -0.75747  -2.36210  -2.69694
C    -1.86208  -1.60791  -2.70258
C    -1.36970  -0.17699  -2.52505
O    -0.10219  -0.22182  -3.19637
C    -0.89543   0.02812  -1.04111
C    -1.95401  -0.21732   0.01866
C    -1.60621  -0.26252   1.38010
C    -2.58174  -0.38426   2.37037
C    -3.93446  -0.45508   2.02276
C    -4.29756  -0.38883   0.67597
C    -3.31705  -0.26507  -0.31346
H    -2.27016   4.41564   1.19648
H    -3.09038   2.87401   1.62314
H    -1.80784   3.53722   2.70045
H    -0.10588   1.86833  -1.91946
H     1.25162   3.24382   0.52702
H     2.71385   2.23790   0.44340
H     2.01393   2.91411  -1.05665
H     1.68510   0.43955   2.02199
H     3.25197  -0.58481   3.65972
H     5.06191  -2.11281   2.87073
H     5.29272  -2.59388   0.43097
H     3.73777  -1.55960  -1.19362
H     1.16117  -2.81374  -0.34910
H    -0.60215  -2.63935  -0.17592
H     0.49058  -1.84516   0.97003
H     1.37419  -1.68927  -2.89769
H    -0.66717  -3.44719  -2.72746
H    -2.90270  -1.92372  -2.75190
H    -1.99523   0.63536  -2.91034
H    -0.56125  -0.17266   1.67125
H    -2.28198  -0.41765   3.42050
H    -4.69945  -0.55148   2.79684
H    -5.35084  -0.42503   0.38788
H    -3.63642  -0.18340  -1.35208
