28
Generated by autodE on: 2022-06-04. E = -724.742694 Ha
C     4.20191   2.34004  -0.17143
O     2.85938   1.88006  -0.01031
C     2.66691   0.53782  -0.10800
O     3.59653  -0.23398  -0.32177
C     1.26451   0.25023   0.06525
N     0.71471  -0.97488   0.09253
C     1.60469  -2.15875   0.05828
C    -0.62645  -1.18254   0.15782
C    -1.11847  -2.48562   0.39217
N    -1.61161  -3.52915   0.58397
C    -1.63485  -0.10738   0.03516
C    -1.58288   0.84284  -1.00481
C    -2.58982   1.79725  -1.13933
C    -3.66600   1.82302  -0.24431
C    -3.73176   0.87946   0.78434
C    -2.72673  -0.07959   0.92272
H     4.59145   2.07797  -1.16696
H     4.16512   3.43055  -0.05996
H     4.86144   1.90700   0.59598
H     0.59609   1.09759   0.17781
H     2.34274  -2.07547   0.86181
H     2.12287  -2.18369  -0.90597
H     1.00986  -3.06572   0.18566
H    -0.75824   0.82773  -1.71971
H    -2.53788   2.52241  -1.95471
H    -4.45143   2.57447  -0.35239
H    -4.56887   0.88904   1.48608
H    -2.78535  -0.81610   1.72708
