28
Generated by autodE on: 2022-07-27. E = -724.738026 Ha
C    -3.76796   3.12787   0.72200
O    -2.66455   2.24132   0.50976
C    -2.55798   1.70169  -0.72050
O    -3.37413   1.94498  -1.60737
C    -1.45843   0.79495  -0.95905
N    -0.44363   0.42592  -0.15697
C    -0.33425   0.99591   1.20616
C     0.54954  -0.40943  -0.57892
C     0.61734  -0.70617  -1.95876
N     0.70707  -0.95881  -3.09681
C     1.51518  -1.09029   0.30261
C     1.13050  -1.68595   1.52176
C     2.06549  -2.36309   2.30471
C     3.39349  -2.47960   1.88092
C     3.78065  -1.91459   0.66123
C     2.85298  -1.22684  -0.12053
H    -3.71609   3.98732   0.03753
H    -4.72345   2.60390   0.57220
H    -3.68436   3.46829   1.76097
H    -1.47743   0.34297  -1.94888
H    -1.11730   0.57926   1.84894
H     0.65291   0.77262   1.61198
H    -0.46631   2.07780   1.13095
H     0.09161  -1.63544   1.85050
H     1.74892  -2.81686   3.24671
H     4.12123  -3.01531   2.49458
H     4.81412  -2.00367   0.31865
H     3.16418  -0.78101  -1.06786
