31
Generated by autodE on: 2022-10-06. E = -971.775300 Ha
C    -2.92417  -2.73717  -1.20667
C    -2.90057  -1.46992  -0.40313
O    -3.90901  -0.98332   0.09074
C    -1.59130  -0.77109  -0.20726
N    -0.50391  -1.19635  -0.73410
C     0.55823  -0.22558  -0.43226
C     1.90913  -0.84441  -0.17780
C     2.03530  -2.13339   0.35949
C     3.29623  -2.66682   0.64365
C     4.44967  -1.91437   0.40079
C     4.33293  -0.62463  -0.12880
C     3.07237  -0.09536  -0.41699
C     0.03287   0.63239   0.74083
C     0.57269   2.07493   0.80548
O     0.64463   2.59560   1.94775
O     0.87756   2.63544  -0.28336
C    -1.50690   0.52653   0.55220
C    -2.10423   1.68899  -0.29540
O    -2.39614   2.73961   0.32518
O    -2.22917   1.48932  -1.53310
H    -2.59096  -2.52864  -2.23564
H    -2.21989  -3.47148  -0.78685
H    -3.94080  -3.15060  -1.22047
H     0.63605   0.43423  -1.31280
H     1.13802  -2.72481   0.55204
H     3.37769  -3.67530   1.05714
H     5.43524  -2.33103   0.62250
H     5.22862  -0.02902  -0.32244
H     2.98000   0.91292  -0.82706
H     0.29248   0.13490   1.68762
H    -2.04014   0.50127   1.51138
