21
Generated by autodE on: 2022-10-06. E = -516.633303 Ha
C     3.31155   1.32728   0.01237
C     3.24956  -0.17623  -0.08144
O     4.17413  -0.91336   0.25317
C     2.03971  -0.70558  -0.67479
N     0.93634  -1.08503  -0.27501
C    -0.27058  -1.40368   0.04396
C    -1.35670  -0.43084   0.07089
C    -2.66162  -0.87367   0.36568
C    -3.72506   0.02863   0.39135
C    -3.50538   1.38471   0.12486
C    -2.21074   1.83349  -0.16589
C    -1.14267   0.93825  -0.19150
H     2.55606   1.81961  -0.61564
H     3.12959   1.60672   1.06428
H     4.31978   1.67155  -0.26358
H    -0.46682  -2.44768   0.30717
H    -2.83256  -1.93321   0.57141
H    -4.73215  -0.32810   0.62000
H    -4.33886   2.09053   0.14588
H    -2.03281   2.89190  -0.37057
H    -0.13456   1.29756  -0.41047
