10
Generated by autodE on: 2022-10-06. E = -455.045349 Ha
O    -2.64024   0.38004   0.00066
C    -1.47897   0.24698   0.47763
O    -1.11399  -0.62588   1.30847
C    -0.46626   1.26909   0.00007
C     0.78191   1.01694  -0.42604
C     1.46676  -0.33512  -0.46105
O     2.63403  -0.35579   0.01919
O     0.85627  -1.31025  -0.97204
H    -0.84039   2.30004  -0.03784
H     1.41398   1.85760  -0.73928
