31
Generated by autodE on: 2022-10-06. E = -971.672050 Ha. Imaginary frequency = -367.7 cm-1
C    -3.81265  -1.46810  -1.09906
C    -2.55837  -1.98247  -0.45608
O    -2.47809  -3.08831   0.08148
C    -1.42271  -1.07731  -0.33179
N    -0.25966  -1.06086  -0.70861
C     0.81950  -0.30638  -0.71395
C     2.07866  -0.76047  -0.14904
C     2.16649  -1.95640   0.59563
C     3.37421  -2.33999   1.17405
C     4.51639  -1.54202   1.02300
C     4.43913  -0.35570   0.28472
C     3.23403   0.03304  -0.30042
C    -0.27186   1.23611   0.96580
C     0.48683   2.38025   0.34552
O     1.61203   2.63267   0.87496
O    -0.00633   3.02231  -0.62562
C    -1.58958   0.85506   0.77518
C    -2.56250   1.44705  -0.23598
O    -3.58984   1.99321   0.24876
O    -2.32072   1.30082  -1.46549
H    -4.25493  -0.68553  -0.45952
H    -3.59776  -0.99928  -2.06948
H    -4.52637  -2.29563  -1.20855
H     0.81451   0.52980  -1.41901
H     1.27786  -2.58125   0.71170
H     3.42879  -3.26911   1.74669
H     5.46248  -1.84649   1.47652
H     5.32646   0.27016   0.16234
H     3.17136   0.96340  -0.86795
H     0.23279   0.82556   1.84667
H    -2.08289   0.35975   1.61686
