18
Generated by autodE on: 2022-10-21. E = -584.881549 Ha
C    -4.65605  -0.84146  -0.01665
N    -3.47647  -0.31718  -0.66924
C    -2.24704  -0.35321  -0.12158
O    -1.96755  -0.82163   0.98231
N    -1.28780   0.22986  -0.99264
N    -0.12583   0.22410  -0.53615
C     0.98384   0.25101  -0.16963
C     2.32363   0.24582   0.37120
O     2.58472  -0.22148   1.45939
O     3.18099   0.80805  -0.47243
C     4.55593   0.86704  -0.04282
H    -5.10779  -1.65616  -0.60490
H    -4.37289  -1.23464   0.96679
H    -5.41456  -0.05496   0.12289
H    -3.56329   0.09652  -1.59188
H     5.09901   1.35537  -0.85901
H     4.63809   1.45544   0.88171
H     4.94323  -0.14752   0.12562
