12
Generated by autodE on: 2022-05-28. E = -394.801331 Ha
C    -0.91152   1.19200  -1.71316
C    -0.17622   0.76945  -0.48697
C     0.51019   1.79221   0.24652
N     1.05347   2.64865   0.81342
C    -0.11069  -0.51396  -0.01782
C    -0.77050  -1.59106  -0.69235
N    -1.29889  -2.47792  -1.22513
C     0.61614  -0.85325   1.16904
N     1.20368  -1.13809   2.12981
H    -1.66629   1.94894  -1.44419
H    -1.40045   0.34307  -2.20608
H    -0.20930   1.67281  -2.41355
