13
Generated by autodE on: 2022-05-28. E = -228.673971 Ha
C     1.63409  -1.10668  -0.25572
C     0.94781   0.12029   0.24537
N    -0.34984   0.34312   0.10974
C    -1.16041  -0.68035  -0.57590
N    -1.05264   1.38675   0.51285
H     1.24725  -2.03688   0.20055
H     1.54935  -1.23472  -1.35092
H     2.70483  -1.04434  -0.01490
H     1.50374   0.90829   0.75959
H    -1.09194  -1.63462  -0.03748
H    -2.19452  -0.32597  -0.58893
H    -0.79434  -0.82283  -1.60111
H    -0.37358   2.01318   0.96732
