13
Generated by autodE on: 2022-07-26. E = -228.681338 Ha
C     0.54237   1.86829  -0.49981
C     0.34680   0.42961  -0.80727
N    -0.11762  -0.39112   0.12044
C    -0.30330  -1.80917  -0.22297
N    -0.45668  -0.11337   1.36393
H    -0.40426   2.35364  -0.18873
H     1.25236   2.01627   0.33846
H     0.93080   2.40302  -1.37712
H     0.57088  -0.00107  -1.78152
H     0.30213  -2.41505   0.46384
H    -0.00265  -1.99496  -1.25944
H    -1.36161  -2.06517  -0.08170
H    -0.28820   0.89013   1.49117
