25
Generated by autodE on: 2022-05-28. E = -623.496435 Ha. Imaginary frequency = -171.6 cm-1
C    -1.35424   1.88478  -1.35849
C    -1.50004   1.06202  -0.11856
N    -1.77785  -0.26592  -0.25239
C    -2.36259  -1.01204   0.87904
N    -1.29450  -0.88586  -1.27189
C     1.04103  -0.31695  -0.26587
C     1.08610  -1.65285   0.22110
N     1.14968  -2.74233   0.63488
C     1.65603  -0.08057  -1.52483
N     2.16700   0.10741  -2.55638
C     0.56881   0.76983   0.52880
C     1.12436   2.16476   0.30920
C     0.29981   0.46755   1.91135
N     0.07743   0.25864   3.03343
H    -2.29828   1.83015  -1.92951
H    -1.17531   2.93442  -1.09741
H    -0.55224   1.53294  -2.01882
H    -1.96818   1.52466   0.75121
H    -3.20949  -1.59676   0.49606
H    -1.60494  -1.68985   1.29376
H    -2.70728  -0.31399   1.64727
H    -1.45266  -1.89165  -1.12867
H     0.47392   2.92497   0.76020
H     2.11674   2.23074   0.78361
H     1.24217   2.37915  -0.75954
