20
Generated by autodE on: 2022-10-26. E = -420.515879 Ha
C    -3.19296  -1.98662  -1.85424
C    -2.51401  -1.72362  -0.56300
N    -1.50882  -0.89723  -0.46427
N    -0.89716  -0.53851   0.65985
C     0.26889   0.17415   0.49025
C     0.98046   0.35481  -0.72691
C     2.15202   1.11472  -0.76589
C     2.67508   1.70300   0.39000
C     1.99743   1.51201   1.60415
C     0.82457   0.76697   1.65575
H    -3.20359  -3.06780  -2.07515
H    -2.69851  -1.46139  -2.68556
H    -4.24843  -1.66289  -1.81635
H    -2.84201  -2.19708   0.36605
H    -1.20124  -0.46878  -1.35083
H     0.64476  -0.11855  -1.65290
H     2.67287   1.23271  -1.72041
H     3.59574   2.28909   0.35058
H     2.38986   1.95546   2.52361
H     0.29488   0.62656   2.60112
