17
Generated by autodE on: 2022-10-20. E = -881.716874 Ha
C     2.83417   0.04263  -0.39780
O     1.71012  -0.45732  -1.12867
C     0.50928  -0.41673  -0.54666
C    -0.00427  -0.00180   0.62710
Cl    0.68009   0.80502   1.99841
C    -1.53364  -0.16523   0.46019
C    -2.00646   0.87392  -0.58540
C    -1.49320   0.44891  -1.74369
C    -0.72534  -0.84271  -1.37806
O    -1.56735  -1.36516  -0.33636
H     3.70879  -0.09827  -1.04503
H     2.97192  -0.52011   0.53788
H     2.70855   1.11201  -0.17196
H    -2.11033  -0.25711   1.38704
H    -2.58143   1.77213  -0.36260
H    -1.52616   0.90042  -2.73440
H    -0.52821  -1.56853  -2.17473
