37
Generated by autodE on: 2022-10-20. E = -1302.233709 Ha. Imaginary frequency = -255.6 cm-1
C    -0.87606  -0.79929   2.84416
O    -0.59102   0.38176   2.09107
C    -0.80746   0.36796   0.76809
C    -0.32617   1.58676  -0.03780
C    -1.48255   2.60624   0.00267
C    -2.44077   2.06641  -0.76079
C    -1.85329   0.72450  -1.25083
O    -0.46410   1.07287  -1.37418
C    -1.76958  -0.22418  -0.03254
Cl   -3.25786  -0.97362   0.52594
C    -0.68136  -2.11422  -0.94503
C    -1.38310  -2.44822  -2.21162
N     0.51257  -1.54856  -0.95433
N     1.06515  -1.12816   0.18347
C     2.22237  -0.38933   0.05580
C     2.95940  -0.19221  -1.14005
C     4.10233   0.61078  -1.14780
C     4.55697   1.23525   0.01795
C     3.84533   1.03497   1.21033
C     2.70662   0.23622   1.23411
H    -0.46858  -0.62921   3.84906
H    -0.37604  -1.66201   2.38124
H    -1.95723  -0.98271   2.91178
H     0.68731   1.94364   0.17296
H    -1.49379   3.52240   0.59215
H    -3.44750   2.42723  -0.96949
H    -2.25707   0.30122  -2.17703
H    -0.96194  -2.62000  -0.02115
H    -1.23334  -3.50908  -2.48038
H    -1.03253  -1.82398  -3.04718
H    -2.46676  -2.29962  -2.08649
H     0.78423  -1.09247  -1.83198
H     2.66253  -0.68086  -2.07058
H     4.65068   0.74126  -2.08495
H     5.45287   1.85962   0.00205
H     4.18580   1.50875   2.13515
H     2.14959   0.08963   2.16134
