44
Generated by autodE on: 2022-06-21. E = -1050.816650 Ha
C    -1.72443  -0.89121  -2.83955
O    -1.49381   0.13652  -1.86033
C    -1.44603  -0.23892  -0.59014
O    -1.68000  -1.36287  -0.19951
C    -1.02440   0.90234   0.35925
C    -1.57780   2.23323  -0.19764
C    -2.92930   2.65773   0.29390
O    -0.94956   2.87173  -1.01896
N    -1.49974   0.65307   1.71368
C    -0.55101  -0.18100   2.45095
C    -1.09303  -1.51783   2.77687
N    -1.52917  -2.55749   3.04647
C    -0.20017   0.47091   3.73949
N     0.07217   0.99866   4.73500
C     0.69375  -0.30772   1.51888
C     0.55253   0.85553   0.52015
C     1.07354   2.16261   1.15022
C     1.25092   0.62201  -0.79617
C     1.90133  -0.49078  -1.18597
C     2.50883  -0.63175  -2.49977
C     3.14214  -1.72492  -2.98876
C     3.33878  -3.00534  -2.22688
C     3.70649  -1.72747  -4.38189
H    -0.89563  -1.61349  -2.82019
H    -1.76173  -0.37963  -3.80751
H    -2.67379  -1.40620  -2.63830
H    -3.63745   1.81445   0.24786
H    -3.29589   3.50037  -0.30574
H    -2.85504   2.95744   1.35090
H    -2.45801   0.31492   1.76634
H     0.62664  -1.27483   1.01120
H     1.63308  -0.27350   2.08276
H     0.49563   2.45130   2.04005
H     1.03297   2.99218   0.43415
H     2.12114   2.01797   1.45183
H     1.18240   1.46343  -1.49188
H     1.97683  -1.34242  -0.50550
H     2.42436   0.24307  -3.15520
H     2.92554  -2.98324  -1.21026
H     4.41413  -3.24586  -2.15597
H     2.87212  -3.84673  -2.76885
H     4.79262  -1.92856  -4.36361
H     3.53776  -0.77230  -4.90057
H     3.25615  -2.53661  -4.98437
