23
Generated by autodE on: 2022-06-21. E = -351.521385 Ha
C     3.67987   0.86513  -0.08513
C     2.58282   0.09528   0.08673
C     2.69637  -1.34744   0.50836
C     1.25323   0.65946  -0.13697
C     0.07821  -0.00405   0.00426
C    -1.21519   0.60439  -0.23148
C    -2.43050   0.01269  -0.11095
C    -2.64155  -1.41690   0.30007
C    -3.69074   0.78063  -0.39345
H     4.68650   0.46893   0.07496
H     3.59401   1.91238  -0.39109
H     2.23971  -2.01705  -0.23934
H     3.74698  -1.64216   0.64026
H     2.16443  -1.52726   1.45742
H     1.22533   1.71163  -0.44500
H     0.09752  -1.05315   0.31147
H    -1.19414   1.65658  -0.54018
H    -1.71012  -1.95910   0.50792
H    -3.27610  -1.46486   1.20268
H    -3.18942  -1.96375  -0.48769
H    -3.48685   1.81993  -0.69023
H    -4.34899   0.79326   0.49391
H    -4.27293   0.29526  -1.19741
