21
Generated by autodE on: 2022-07-27. E = -699.251372 Ha
C     0.06810  -0.06429  -4.19399
O    -0.09072   0.45976  -2.86391
C     0.09925  -0.38130  -1.86261
O     0.39180  -1.56079  -2.00181
C    -0.07641   0.21434  -0.51323
N     0.12380  -0.71237   0.42904
C     0.21010  -0.74215   1.76943
C     0.36898  -2.01788   2.37764
N     0.48947  -3.05359   2.89710
C     0.30732   0.37847   2.63299
N     0.48507   1.18711   3.45320
C    -0.58712   1.55844  -0.18134
C    -0.59474   2.65306  -1.20775
O    -1.03238   1.74307   0.94927
H    -0.65420  -0.87326  -4.37121
H    -0.12436   0.77678  -4.86884
H     1.09056  -0.44271  -4.33245
H     0.28866  -1.63108  -0.02187
H    -1.35283   2.44287  -1.97749
H    -0.84009   3.59568  -0.70175
H     0.37470   2.72694  -1.72002
