46
Generated by autodE on: 2022-06-29. E = -1341.986382 Ha
C    -3.41104   2.78226   1.40578
N    -2.29487   2.14210   0.73906
C    -2.44529   1.34809  -0.32075
O    -3.50538   1.11101  -0.90099
C    -1.13004   0.67608  -0.81802
C    -1.14679   0.81549  -2.29279
N    -1.17281   0.99408  -3.43796
N     0.04604   1.23415  -0.19142
C     1.09749   0.27130   0.06237
C     2.15968   0.31319  -1.09462
O     1.86081   0.87353  -2.14838
N     3.34067  -0.26448  -0.86857
C     4.35699  -0.34282  -1.90080
C     1.79925   0.55332   1.40180
O     2.69572  -0.14724   1.83306
O     1.34672   1.62976   2.02087
C     1.96318   1.96069   3.27890
C     0.37963  -1.13108   0.05195
F     1.01462  -1.96097  -0.85278
C     0.16310  -1.82022   1.40660
C    -0.49049  -3.19635   1.15210
C    -1.95426  -2.84016   0.76510
C    -1.95098  -1.29716   0.75898
C    -1.01973  -0.99589   1.95165
C    -1.09237  -0.84486  -0.43650
F    -1.36896  -1.58638  -1.56696
H    -3.06078   3.69185   1.91046
H    -3.86946   2.11632   2.15562
H    -4.17783   3.05176   0.66738
H    -1.35634   2.18881   1.13326
H     0.38733   2.07603  -0.65070
H     3.49525  -0.70277   0.03559
H     4.02884  -0.98122  -2.73727
H     5.26989  -0.76816  -1.46688
H     4.58378   0.65603  -2.30302
H     3.03920   2.13401   3.13915
H     1.80874   1.14542   3.99930
H     1.46690   2.87510   3.62166
H     1.06641  -1.86287   2.02080
H    -0.44923  -3.79217   2.07409
H     0.03472  -3.75717   0.36844
H    -2.26129  -3.26012  -0.20002
H    -2.66660  -3.18754   1.52598
H    -2.95106  -0.85133   0.77417
H    -1.41372  -1.40514   2.89170
H    -0.80114   0.06890   2.10321
