29
Generated by autodE on: 2022-07-27. E = -870.504789 Ha
C    -3.87945   1.31955   1.75420
N    -3.09851   1.28840   0.53235
C    -2.07181   0.43418   0.38244
O    -1.70467  -0.34055   1.27374
C    -1.42814   0.40793  -0.96115
C    -2.18889   0.67111  -2.12287
N    -2.83837   0.90984  -3.06385
N    -0.19431  -0.08871  -1.14045
C     0.82541  -0.32670  -0.31897
C     1.91616  -1.06886  -1.01801
O     1.76940  -1.33596  -2.22537
N     3.00801  -1.41100  -0.32314
C     4.09840  -2.13856  -0.94150
C     0.92986   0.35914   0.98073
O     0.43115   1.44352   1.21711
O     1.69627  -0.30408   1.85487
C     1.95607   0.34466   3.11148
H    -3.23560   1.51526   2.62542
H    -4.62550   2.11897   1.67585
H    -4.39863   0.36256   1.92266
H    -3.34876   1.91205  -0.22893
H     0.05564  -0.40940  -2.09599
H     3.03281  -1.19760   0.67002
H     4.50955  -1.58293  -1.79847
H     3.76707  -3.12467  -1.30507
H     4.89152  -2.28289  -0.19844
H     2.58853  -0.34665   3.67919
H     1.01132   0.52604   3.64239
H     2.47828   1.29801   2.94828
