17
Generated by autodE on: 2022-06-29. E = -471.410361 Ha
F     0.44018   1.87298  -1.18452
C     0.25576   0.89838  -0.28462
C     0.92790  -0.25327  -0.16834
F     1.94002  -0.69668  -0.92502
C     0.18186  -1.12468   0.81623
C    -1.14090  -1.56128   0.10136
C    -1.92356  -0.22062  -0.03390
C    -0.95302   0.81958   0.61991
C    -0.35984  -0.03187   1.76410
H     0.77010  -1.93984   1.25606
H    -1.68647  -2.28289   0.72724
H    -0.93628  -2.04020  -0.86664
H    -2.15190   0.04154  -1.07669
H    -2.87190  -0.25181   0.52264
H    -1.40440   1.78535   0.87977
H     0.43249   0.48689   2.32185
H    -1.12653  -0.40949   2.45732
