46
Generated by autodE on: 2022-06-29. E = -1341.898655 Ha. Imaginary frequency = -334.6 cm-1
C    -3.51471   2.26752   1.62886
N    -2.88627   1.94768   0.36117
C    -1.54986   1.78080   0.27311
O    -0.79326   2.00820   1.22670
C    -1.02888   1.28468  -1.02161
C    -1.84865   1.37863  -2.17804
N    -2.54825   1.43078  -3.10888
N     0.30191   1.10208  -1.26403
C     1.23203   0.58880  -0.43093
C     2.38438   0.00204  -1.20352
O     2.35497  -0.00501  -2.43987
N     3.38759  -0.51373  -0.47690
C     4.46964  -1.25032  -1.10186
C     1.61155   1.28704   0.84808
O     1.93896   2.45453   0.86399
O     1.74240   0.45891   1.87822
C     2.21277   1.02872   3.10996
C     0.04135  -1.42368  -0.10126
F     0.76418  -2.08750  -1.04555
C     0.02539  -1.96490   1.31258
C    -0.72272  -3.33437   1.21121
C    -2.18760  -2.92129   0.88560
C    -2.11050  -1.35806   0.81860
C    -1.07383  -1.08021   1.92836
C    -1.27818  -1.08546  -0.40624
F    -1.77541  -1.37910  -1.62894
H    -3.02960   3.14017   2.08857
H    -4.57120   2.50236   1.45020
H    -3.45308   1.42634   2.33976
H    -3.47885   1.62721  -0.39829
H     0.53628   0.85168  -2.23565
H     3.26540  -0.58907   0.52944
H     4.89432  -0.67211  -1.93423
H     4.12032  -2.21900  -1.49707
H     5.25333  -1.43201  -0.35654
H     2.25741   0.19977   3.82494
H     1.50904   1.79756   3.45849
H     3.20893   1.47195   2.97131
H     0.99375  -1.99632   1.82230
H    -0.65540  -3.86065   2.17428
H    -0.27834  -3.98055   0.44124
H    -2.55714  -3.34818  -0.05708
H    -2.88070  -3.21637   1.68660
H    -3.07434  -0.83857   0.87564
H    -1.41121  -1.46285   2.90201
H    -0.79061  -0.02983   2.02260
