28
Generated by autodE on: 2022-10-06. E = -985.851532 Ha
C     3.45425   2.20676  -0.10702
O     2.25841   1.57476  -0.58148
C     2.15863   0.26319  -0.36408
O     3.05990  -0.40406   0.11114
C     0.86955  -0.37229  -0.84562
N    -0.13650   0.56168  -1.39724
N    -1.25816   0.46088  -0.53812
C    -1.68009   1.53638   0.18607
C    -1.11341   2.87914  -0.20092
O    -2.51119   1.40918   1.09129
C    -1.32470  -0.90414  -0.02681
C    -1.86711  -1.92094  -1.06091
O    -1.94854  -1.56080  -2.26452
O    -2.13916  -3.05579  -0.59694
C     0.17106  -1.18401   0.28221
C     0.48820  -0.69377   1.71223
O     0.41348  -1.54787   2.62878
O     0.74732   0.53387   1.85607
H     4.34376   1.76267  -0.57640
H     3.36814   3.26455  -0.38176
H     3.52699   2.10352   0.98575
H     1.18015  -1.06384  -1.64347
H    -0.46307   0.14660  -2.27063
H    -1.22707   3.07344  -1.27619
H    -0.03728   2.89750   0.02441
H    -1.62845   3.65574   0.37834
H    -1.94505  -0.94009   0.87491
H     0.38422  -2.25685   0.21666
