18
Generated by autodE on: 2022-10-13. E = -530.742969 Ha
C     1.56709   0.67463   2.83085
O     1.00640   0.35376   1.54814
C     1.86632  -0.00977   0.59963
O     3.07318  -0.08365   0.76325
C     1.26883  -0.33092  -0.70586
N     0.00845  -0.30041  -1.04585
N    -1.05599   0.01758  -0.34223
C    -2.18890  -0.10375  -1.13041
C    -3.47041   0.19241  -0.40976
O    -2.15712  -0.45342  -2.31716
H     0.71845   0.94858   3.46771
H     2.09293  -0.19608   3.24853
H     2.26732   1.51792   2.74347
H     1.96240  -0.63139  -1.49019
H    -0.21146  -0.56544  -2.03041
H    -3.32184   0.94452   0.37675
H    -4.23790   0.52059  -1.12322
H    -3.82419  -0.73450   0.07416
