18
Generated by autodE on: 2022-10-06. E = -530.749406 Ha
C    -4.15297  -0.18683   0.00973
O    -2.88936  -0.63131   0.52748
C    -1.79847  -0.07399   0.00249
O    -1.80504   0.77425  -0.87406
C    -0.57735  -0.61299   0.61516
N     0.55774  -0.14899   0.17964
N     1.76157  -0.48793   0.57657
C     2.71548   0.22992  -0.12788
C     4.12661  -0.08734   0.27032
O     2.43266   1.06200  -0.99748
H    -4.21979  -0.39562  -1.06783
H    -4.27905   0.89176   0.18291
H    -4.91736  -0.75165   0.55503
H    -0.59379  -1.37044   1.39884
H     0.52211   0.57495  -0.57240
H     4.83352   0.42652  -0.39275
H     4.29581   0.23661   1.31035
H     4.29656  -1.17444   0.23892
