10
Generated by autodE on: 2022-10-06. E = -455.051700 Ha
O    -2.35109   0.34317   0.94977
C    -1.95849  -0.23451  -0.10112
O    -2.69842  -0.79525  -0.95720
C    -0.47118  -0.27564  -0.38864
C     0.47119   0.27568   0.38852
C     1.95844   0.23459   0.10107
O     2.69837   0.79504   0.95737
O     2.35117  -0.34305  -0.94980
H    -0.17066  -0.79806  -1.30328
H     0.17072   0.79810   1.30317
