58
Generated by autodE on: 2022-10-23. E = -1487.913567 Ha
C     3.80654   0.40361   3.51278
N     3.26530   0.13381   2.19618
C     1.96827  -0.12195   2.01098
O     1.15000  -0.14057   2.93888
C     1.45345  -0.32483   0.55627
C     2.53915  -0.81075  -0.43780
O     3.71912  -0.42894  -0.36927
N     2.09333  -1.58808  -1.42720
C     2.91168  -1.93987  -2.56891
C     0.91886   1.06615   0.07119
C     1.15254   1.40598  -1.43171
O     0.14893   0.61740  -2.08263
C    -0.96939   1.18787  -1.40066
C    -0.73528   2.67496  -1.62118
O    -1.76270   3.49584  -1.64460
C    -1.50846   4.90791  -1.69871
C     0.62045   2.83276  -1.65217
C     1.43895   3.97468  -1.69646
N     2.17049   4.88448  -1.73474
C    -0.63141   0.94708   0.09978
C    -0.96682  -0.45337   0.67196
C    -1.45487  -0.27962   2.15684
C    -1.72092  -1.51259   2.98050
O    -1.70527   0.82392   2.60960
C    -2.12151  -1.11174  -0.09055
C    -1.89426  -2.06455  -1.09148
C    -2.95823  -2.59194  -1.82945
C    -4.26734  -2.17277  -1.57927
C    -4.50408  -1.21920  -0.58427
C    -3.44043  -0.69486   0.15327
N     0.29058  -1.19642   0.52962
C     0.45970  -2.52428   1.09699
H     3.32353   1.28215   3.96943
H     3.65817  -0.45112   4.19230
H     4.88204   0.59941   3.42218
H     3.85714   0.09601   1.36243
H     1.08570  -1.71728  -1.46264
H     3.91648  -2.23558  -2.23754
H     2.44743  -2.78090  -3.09938
H     3.01377  -1.09258  -3.26867
H     1.31173   1.86890   0.70355
H     2.15129   1.21291  -1.83312
H    -1.92392   0.80029  -1.76510
H    -2.48952   5.39618  -1.70850
H    -0.95467   5.15893  -2.61526
H    -0.93885   5.22295  -0.81212
H    -1.10880   1.70565   0.72587
H    -2.50644  -1.28214   3.71325
H    -0.80305  -1.76719   3.53023
H    -2.01163  -2.37782   2.37388
H    -0.87943  -2.39831  -1.30185
H    -2.75899  -3.33478  -2.60552
H    -5.09837  -2.58543  -2.15597
H    -5.52211  -0.87870  -0.38089
H    -3.64281   0.05966   0.91607
H     0.69189  -2.52384   2.17468
H     1.28190  -3.03925   0.57924
H    -0.44865  -3.11823   0.93976
