40
Generated by autodE on: 2022-10-26. E = -973.434455 Ha
C     2.41646   3.29339   1.22662
N     2.37380   1.90968   0.79888
C     1.25363   1.37439   0.25436
O     0.21524   2.05814   0.16612
C     1.33497  -0.02040  -0.23340
C     2.57591  -0.78222  -0.48254
O     2.61071  -2.01782  -0.32722
N     3.68300  -0.10168  -0.87045
C     4.93975  -0.78155  -1.11406
N     0.14626  -0.64831  -0.54015
C     0.01607  -1.38556  -1.81049
C    -0.89594  -0.46860   0.27867
C    -0.65271  -0.27962   1.73189
C     0.52777  -0.95132   2.40031
O    -1.48052   0.32335   2.41164
C    -2.27167  -0.40368  -0.22929
C    -2.55783   0.33592  -1.39340
C    -3.86305   0.41405  -1.87830
C    -4.90160  -0.24085  -1.20805
C    -4.62955  -0.96787  -0.04324
C    -3.32721  -1.04516   0.44778
H     2.31917   3.98828   0.37613
H     1.60154   3.51193   1.93397
H     3.37730   3.47912   1.72254
H     3.20984   1.34411   0.88601
H     3.58811   0.86152  -1.17373
H     5.19690  -1.42894  -0.26318
H     4.89920  -1.41239  -2.01851
H     5.73086  -0.03202  -1.24239
H     0.88696  -2.04163  -1.91093
H    -0.01221  -0.68295  -2.65325
H    -0.89317  -1.99473  -1.79063
H     0.12346  -1.51383   3.25702
H     1.08771  -1.62409   1.74109
H     1.21405  -0.19158   2.80365
H    -1.75432   0.87559  -1.89676
H    -4.07240   0.99750  -2.77778
H    -5.92383  -0.17905  -1.58842
H    -5.43811  -1.47870   0.48443
H    -3.11958  -1.61765   1.35315
