18
Generated by autodE on: 2022-10-23. E = -514.386957 Ha
C    -2.84092  -0.15542  -0.08622
O    -1.72912  -0.97093  -0.48959
C    -0.51803  -0.47350  -0.38054
C     0.00397   0.70697   0.06156
C    -0.57879   1.85830   0.60800
N    -1.01203   2.84354   1.06529
C     1.54434   0.46671  -0.05527
C     1.92834  -0.58644   1.00262
C     1.38879  -1.72937   0.56730
C     0.69615  -1.35079  -0.75682
O     1.57823  -0.33288  -1.25017
H    -3.74114  -0.75506  -0.26229
H    -2.87435   0.76238  -0.69155
H    -2.75712   0.09606   0.98126
H     2.16106   1.36741  -0.13395
H     2.46798  -0.37797   1.92581
H     1.35542  -2.71333   1.03270
H     0.49664  -2.14202  -1.48672
