26
Generated by autodE on: 2022-06-16. E = -590.550471 Ha
C     3.93426   0.03865  -1.21367
N     2.55313   0.28966  -0.86368
C     1.65820  -0.67457  -0.60329
O     1.89694  -1.88811  -0.61687
C     0.27072  -0.18147  -0.27379
N    -0.03121   1.06094  -0.32080
C    -1.45709   1.19655   0.04119
C    -1.56935   1.85331   1.34754
N    -1.66062   2.35843   2.38855
C    -2.07153  -0.23858   0.01805
C    -2.82506  -0.48209  -1.28561
C    -0.81615  -1.13460   0.15526
C    -0.56802  -1.65350   1.57905
H     4.12153  -1.04073  -1.16957
H     4.61389   0.54782  -0.51298
H     4.15593   0.39611  -2.23182
H     2.21147   1.24629  -0.82624
H    -1.95365   1.85936  -0.68529
H    -2.74963  -0.38213   0.87048
H    -3.20556  -1.51437  -1.32305
H    -3.68123   0.20362  -1.38266
H    -2.16501  -0.33130  -2.15544
H    -0.85893  -1.99093  -0.53490
H    -0.52002  -0.81993   2.29745
H    -1.38606  -2.32356   1.88371
H     0.37693  -2.21306   1.63329
