14
Generated by autodE on: 2022-06-16. E = -433.140506 Ha
C    -2.83722   1.21494  -0.42054
N    -2.04190   0.69125  -1.51638
C    -0.91141  -0.01726  -1.37880
O    -0.19302  -0.42222  -2.29391
C    -0.55198  -0.39348   0.00257
N     0.25779  -0.11617   0.83505
C     1.09941   0.11830   1.79833
C     2.39127  -0.45187   1.78004
N     3.46508  -0.91097   1.79067
H    -2.75837   0.55023   0.45264
H    -3.89220   1.25448  -0.72181
H    -2.51635   2.22543  -0.12074
H    -2.26892   0.96858  -2.46931
H     0.79133   0.76326   2.62560
