26
Generated by autodE on: 2022-06-16. E = -590.433506 Ha. Imaginary frequency = -405.0 cm-1
C     3.88086  -0.55223  -1.72831
N     2.49151  -0.18582  -1.51936
C     1.96435  -0.11036  -0.28921
O     2.56143  -0.38098   0.75756
C     0.52927   0.22945  -0.23023
N    -0.15423   1.20343  -0.01712
C    -1.41165   1.59333   0.18630
C    -1.87953   1.74507   1.51053
N    -2.30298   1.83098   2.59685
C    -2.17298  -0.81357  -0.30501
C    -2.74958  -0.55107  -1.66783
C    -0.98345  -1.47367  -0.11132
C    -0.56974  -2.01821   1.23370
H     4.12244  -1.46789  -1.16931
H     4.56515   0.24483  -1.39525
H     4.04098  -0.73239  -2.79786
H     1.91902   0.08375  -2.31467
H    -1.92666   2.12209  -0.61956
H    -2.82900  -0.66064   0.55759
H    -3.36816  -1.40275  -2.00822
H    -3.39796   0.33793  -1.68057
H    -1.95470  -0.40667  -2.41750
H    -0.48349  -1.89912  -0.98969
H    -1.01490  -1.42827   2.05061
H    -0.90547  -3.06401   1.35370
H     0.52229  -2.01301   1.36910
