60
Generated by autodE on: 2022-06-13. E = -1546.432453 Ha
C    -3.32765   3.26836  -1.47579
N    -2.16519   2.57842  -0.95113
C    -2.20588   1.88330   0.19238
O    -3.21744   1.79906   0.90088
C    -0.94135   1.14973   0.62969
N     0.27438   1.50358  -0.08551
C     0.80827   2.80719   0.31533
C     1.21760   0.37345  -0.06982
C     2.08928   0.35508  -1.35573
O     3.05804  -0.39998  -1.46538
N     1.69884   1.19301  -2.32244
C     2.34692   1.22703  -3.61707
C     2.13326   0.50679   1.16925
O     1.81804   0.13982   2.28148
O     3.24837   1.17504   0.90550
C     4.10665   1.47771   2.01810
C     0.30285  -0.90987   0.04121
C     0.89219  -2.01556   0.90196
O     0.25066  -2.70848   1.66480
O     2.17947  -2.22095   0.63947
C     2.84901  -3.24079   1.39484
C    -0.02530  -1.51304  -1.38207
C    -0.76155  -2.85641  -1.24829
C    -2.13576  -2.43279  -0.66534
C    -2.05221  -0.88276  -0.62499
C    -1.17711  -0.61450  -1.85918
C    -1.12505  -0.40343   0.53185
C    -1.59387  -0.80337   1.94034
O    -1.01457  -0.51322   2.96651
O    -2.79472  -1.38077   1.94339
C    -3.35981  -1.68511   3.22581
H    -4.09445   2.55746  -1.82557
H    -3.78152   3.90442  -0.70143
H    -3.01898   3.89813  -2.31917
H    -1.30376   2.56284  -1.48866
H    -0.83166   1.40400   1.69704
H     1.03411   2.85540   1.39778
H     1.72031   3.03700  -0.24787
H     0.06678   3.58565   0.09486
H     0.85249   1.72854  -2.15056
H     3.43621   1.32691  -3.50059
H     1.96774   2.08573  -4.18469
H     2.14899   0.30601  -4.19073
H     3.57566   2.10708   2.74620
H     4.96276   2.01692   1.59793
H     4.43800   0.54946   2.50406
H     2.37577  -4.21802   1.22521
H     3.88346  -3.24860   1.03370
H     2.81948  -2.99547   2.46616
H     0.86612  -1.57506  -2.01334
H    -0.23621  -3.59658  -0.63153
H    -0.86629  -3.29087  -2.25280
H    -2.96064  -2.72686  -1.33035
H    -2.32801  -2.87747   0.31466
H    -3.03385  -0.39773  -0.60071
H    -0.90473   0.43283  -2.00490
H    -1.63181  -0.99228  -2.78633
H    -2.70611  -2.37489   3.77827
H    -3.49793  -0.76367   3.80952
H    -4.32799  -2.15728   3.02345
