31
Generated by autodE on: 2022-07-27. E = -817.534223 Ha
C    -4.73079   1.40831   2.01255
N    -3.35174   1.01662   1.81793
C    -2.82892   0.86487   0.57619
O    -3.52910   1.05923  -0.43326
C    -1.41225   0.46230   0.62632
N    -0.58547   0.24979  -0.38896
C    -1.06030   0.46383  -1.78112
C     0.71725  -0.18703  -0.26740
C     1.59354  -0.14530  -1.48715
O     1.81737   0.90660  -2.10242
N     2.11558  -1.32505  -1.87883
C     3.13481  -1.39987  -2.90730
C     1.28904  -0.54756   1.00413
O     0.72292  -0.57670   2.09900
O     2.60529  -0.87190   0.89490
C     3.26796  -1.26546   2.09689
H    -5.42416   0.66862   1.57994
H    -4.92808   1.48987   3.08823
H    -4.94143   2.38034   1.53795
H    -2.76696   0.85039   2.62984
H    -0.98340   0.29443   1.60985
H    -2.14406   0.57500  -1.76761
H    -0.58380   1.36680  -2.17556
H    -0.76394  -0.40057  -2.38557
H     1.98694  -2.12276  -1.26548
H     4.08046  -0.93387  -2.58050
H     3.32475  -2.45362  -3.14606
H     2.79962  -0.88423  -3.81850
H     2.80039  -2.16236   2.53050
H     4.30386  -1.48594   1.81171
H     3.24869  -0.45532   2.84143
