29
Generated by autodE on: 2022-06-13. E = -728.831095 Ha
C    -3.17296   2.59744  -0.18233
O    -2.52409   1.32708  -0.31547
C    -1.18182   1.33834  -0.37186
O    -0.53037   2.36534  -0.31898
C    -0.65056  -0.03482  -0.49447
C     0.62280  -0.46299  -0.29096
C     1.84528   0.31165   0.01971
O     2.20463   1.33416  -0.52916
O     2.55847  -0.29711   0.97935
C     3.79418   0.32592   1.35910
C     0.58265  -1.98291  -0.25004
C    -0.13718  -2.34548   1.09250
C    -1.59196  -1.86040   0.84849
C    -1.52418  -1.27489  -0.60064
C    -0.54140  -2.25583  -1.26724
H    -4.24803   2.38622  -0.14870
H    -2.85477   3.09870   0.74351
H    -2.93847   3.24180  -1.04226
H     4.22348  -0.30845   2.14300
H     4.47581   0.38219   0.49804
H     3.61164   1.33876   1.74641
H     1.54851  -2.47829  -0.39881
H     0.34710  -1.86119   1.95103
H    -0.09444  -3.43360   1.24622
H    -1.92593  -1.10354   1.57182
H    -2.30599  -2.69629   0.87709
H    -2.49801  -1.11986  -1.07602
H    -0.89245  -3.29825  -1.25123
H    -0.27283  -1.96660  -2.29388
