60
Generated by autodE on: 2022-06-13. E = -1546.367838 Ha. Imaginary frequency = -248.2 cm-1
C    -4.04725   2.89366   1.97852
N    -2.62122   2.67905   1.83043
C    -2.05149   2.54175   0.61268
O    -2.67345   2.78002  -0.43187
C    -0.67548   1.96827   0.68130
N     0.32236   2.21156  -0.21664
C     0.10149   2.99043  -1.44941
C     1.47277   1.45830  -0.07802
C     2.52650   1.60779  -1.17196
O     2.94837   2.72825  -1.47632
N     2.97971   0.47915  -1.73249
C     4.10675   0.49814  -2.64585
C     2.10368   1.34613   1.27137
O     1.64445   1.73952   2.32748
O     3.30554   0.76159   1.18476
C     4.02573   0.58091   2.41254
C     0.27886  -0.58515  -0.01058
C     1.29740  -1.34345   0.74049
O     1.40468  -1.47503   1.94600
O     2.18769  -1.90739  -0.11255
C     3.26408  -2.65520   0.46522
C    -0.00433  -1.02787  -1.45630
C    -0.75867  -2.38672  -1.32611
C    -2.13604  -1.96054  -0.74258
C    -2.00242  -0.41217  -0.63336
C    -1.16119  -0.11305  -1.87767
C    -0.99913  -0.13700   0.49994
C    -1.48304  -0.27790   1.90101
O    -0.85414  -0.05217   2.91946
O    -2.79283  -0.58378   1.93730
C    -3.41255  -0.60754   3.22835
H    -4.62327   2.02025   1.62886
H    -4.27208   3.06505   3.03814
H    -4.36956   3.77106   1.39992
H    -2.09727   2.38093   2.64767
H    -0.30754   1.80775   1.68857
H    -0.96203   3.21535  -1.53615
H     0.68598   3.91625  -1.38900
H     0.42894   2.42913  -2.33151
H     2.70402  -0.41169  -1.32165
H     3.92339   1.20012  -3.47191
H     4.24396  -0.50919  -3.05805
H     5.03552   0.80526  -2.13578
H     3.44707  -0.04795   3.10204
H     4.96330   0.08469   2.13834
H     4.23266   1.55356   2.88093
H     3.83702  -3.05587  -0.37910
H     3.90224  -2.00604   1.08028
H     2.87301  -3.47665   1.08193
H     0.86396  -1.06538  -2.11826
H    -0.22190  -3.10383  -0.68954
H    -0.86493  -2.84188  -2.32219
H    -2.95883  -2.21260  -1.42809
H    -2.35405  -2.42671   0.22679
H    -2.95264   0.12128  -0.53484
H    -0.89524   0.93692  -1.99638
H    -1.64407  -0.45829  -2.80362
H    -2.95029  -1.37403   3.86681
H    -3.32369   0.37391   3.71652
H    -4.46735  -0.84759   3.05148
