15
Generated by autodE on: 2022-05-29. E = -454.229054 Ha
C    -3.40881   0.67464   0.53913
C    -2.39742  -0.18398  -0.15190
O    -2.64441  -1.10193  -0.91233
C    -1.00134   0.14046   0.13797
N     0.11159   0.41570   0.35541
N     1.29468   0.75313   0.62530
C     2.27065  -0.02417  -0.02282
C     3.66599   0.40100   0.32358
O     1.99891  -0.94436  -0.78120
H    -3.28139   0.58927   1.63090
H    -3.24393   1.73126   0.27160
H    -4.41853   0.35819   0.24671
H     3.80590   1.46535   0.07814
H     3.82748   0.29528   1.40820
H     4.39275  -0.21114  -0.22397
