24
Generated by autodE on: 2022-07-27. E = -572.272008 Ha
C     2.74142   2.11496  -1.42775
O     1.68941   1.15103  -1.42776
C     0.96474   1.04331  -0.27736
O     1.19035   1.75771   0.70162
C    -0.04404   0.03673  -0.36410
C    -0.22072  -0.76595  -1.49686
N    -0.38460  -1.45528  -2.43210
N    -0.92861  -0.14455   0.74639
C    -1.69926   1.03146   1.19433
C    -1.14023  -1.32011   1.28741
C    -0.30306  -2.48911   0.91777
C    -2.23100  -1.49644   2.28707
H     3.21388   2.05017  -2.41590
H     3.48443   1.89401  -0.64601
H     2.34923   3.13139  -1.26979
H    -1.25567   1.92704   0.75479
H    -2.74114   0.93608   0.85620
H    -1.67453   1.11077   2.28791
H     0.71440  -2.17992   0.63878
H    -0.73882  -3.00945   0.04585
H    -0.28039  -3.20301   1.75221
H    -1.92034  -1.06202   3.25401
H    -2.43477  -2.56248   2.44275
H    -3.15560  -0.98527   1.98233
