47
Generated by autodE on: 2022-06-19. E = -923.754935 Ha. Imaginary frequency = -375.1 cm-1
C     0.52761  -3.49576  -0.02475
C    -0.31535  -2.97023   0.88235
C    -1.15220  -3.85656   1.76872
C    -0.50246  -1.50490   1.09613
C     0.59453  -0.62636   0.87422
C     0.79556   0.52770   1.70273
C     1.93532   1.26605   1.80527
C     2.00125   2.44638   2.72674
C     3.19676   0.97076   1.04838
C    -0.39427   0.51947  -1.10024
C     0.14041  -0.38775  -2.05317
N     0.64493  -1.10488  -2.82578
C     0.33193   1.78102  -0.98978
O     0.06727   2.72707  -0.26114
O     1.44164   1.78175  -1.76894
C     2.23117   2.97254  -1.75732
N    -1.67384   0.34152  -0.56091
C    -2.39032   1.51962  -0.05738
C    -2.08406  -0.92089  -0.13250
C    -2.16566  -2.02587  -1.16745
C    -3.28906  -0.94122   0.78142
H     0.62370  -4.57966  -0.13440
H     1.12823  -2.87573  -0.69477
H    -2.22760  -3.67487   1.60677
H    -0.95214  -4.92191   1.58428
H    -0.95846  -3.64187   2.83374
H    -1.06535  -1.27093   2.00529
H     1.44130  -0.99307   0.29374
H    -0.05805   0.82716   2.32114
H     2.83800   2.34556   3.44100
H     1.06904   2.58454   3.29329
H     2.19986   3.36819   2.15076
H     3.62085   1.89826   0.63095
H     3.06065   0.25446   0.22874
H     3.96302   0.56745   1.73545
H     3.12371   2.74904  -2.35398
H     2.52241   3.25013  -0.73522
H     1.67579   3.80721  -2.21176
H    -3.46711   1.32424  -0.09378
H    -2.18099   2.37335  -0.70565
H    -2.10510   1.78397   0.97177
H    -1.23024  -2.25139  -1.68002
H    -2.91210  -1.71979  -1.92106
H    -2.52188  -2.95086  -0.69905
H    -3.19653  -0.25124   1.62974
H    -4.20919  -0.69274   0.22533
H    -3.41440  -1.95640   1.17747
