40
Generated by autodE on: 2022-06-03. E = -1436.499571 Ha
C     0.07847  -2.97861  -3.08357
O    -0.22787  -2.48745  -1.76387
C     0.38499  -1.38517  -1.37495
O     1.23383  -0.79099  -1.99773
C    -0.02704  -0.97217   0.05967
C    -0.98817  -2.01747   0.66978
C    -0.36035  -3.17436   1.37238
O    -2.18231  -1.84078   0.55232
O     1.16447  -0.93424   0.85217
N     1.73904   0.33378   0.68662
C     3.10269   0.40870   0.40734
C     3.83419  -0.89794   0.41050
O     3.60418   1.50222   0.21458
C     0.76384   1.30255   0.28064
F     0.63901   2.31000   1.17752
F     1.11729   1.89201  -0.88179
C    -0.55953   0.48530   0.13032
C    -1.36453   0.89645  -1.10662
O    -1.74845   0.09922  -1.93170
O    -1.57900   2.19495  -1.13688
C    -2.34205   2.70720  -2.24728
C    -1.44952   0.69030   1.38198
O    -2.52003   1.24440   1.36068
O    -0.87346   0.17032   2.45183
C    -1.62100   0.20925   3.68332
H     1.15146  -3.20001  -3.16367
H    -0.51513  -3.89054  -3.20685
H    -0.20766  -2.22583  -3.83115
H     0.49023  -3.56933   0.79750
H    -1.11170  -3.95272   1.55486
H     0.03680  -2.80967   2.33464
H     3.43014  -1.54888  -0.37973
H     4.89781  -0.70042   0.23225
H     3.70029  -1.41889   1.37010
H    -2.39166   3.79093  -2.09816
H    -1.83464   2.46823  -3.19198
H    -3.34954   2.26910  -2.24093
H    -0.97946  -0.26406   4.43396
H    -2.55737  -0.35280   3.56268
H    -1.83782   1.25029   3.95814
