40
Generated by autodE on: 2022-06-03. E = -1436.410420 Ha. Imaginary frequency = -237.6 cm-1
C    -0.17159  -0.64944  -3.90183
O    -0.43576  -0.88071  -2.50474
C     0.58853  -1.20835  -1.74752
O     1.71671  -1.41356  -2.13110
C     0.20037  -1.38784  -0.29592
C    -0.95909  -2.26366   0.11148
C    -1.00828  -2.69386   1.54476
O    -1.78346  -2.57551  -0.72634
O     1.08264  -1.21289   0.63000
N     2.02679  -0.26204   0.42408
C     2.86671  -0.20006   1.54539
C     2.73580  -1.23317   2.62905
O     3.69114   0.70186   1.55630
C     0.90330   1.52585  -0.01844
F     1.38689   1.73631  -1.21105
F     1.53430   2.24395   0.87403
C    -0.41779   1.10111   0.15520
C    -1.37898   1.17917  -0.98364
O    -1.21917   1.87436  -1.96736
O    -2.43681   0.39566  -0.79490
C    -3.42040   0.36117  -1.83597
C    -0.85688   0.96638   1.56732
O    -0.09479   0.67313   2.47228
O    -2.15247   1.20441   1.74811
C    -2.65773   1.04249   3.08280
H     0.21742  -1.56520  -4.36698
H    -1.13367  -0.36870  -4.34218
H     0.55613   0.16682  -4.00796
H    -0.07350  -3.20703   1.82019
H    -1.09750  -1.81602   2.20379
H    -1.86721  -3.36064   1.68664
H     1.74340  -1.15857   3.09789
H     2.83356  -2.24826   2.21643
H     3.51725  -1.05391   3.37708
H    -4.21281  -0.30362  -1.47396
H    -3.82115   1.36726  -2.02386
H    -2.98099  -0.04130  -2.75933
H    -2.14330   1.72437   3.77446
H    -2.52143   0.00439   3.41866
H    -3.72451   1.28679   3.02827
