28
Generated by autodE on: 2022-06-16. E = -595.577048 Ha
C     1.50803   2.26834   0.25033
C     0.39640   1.48831  -0.39050
O    -0.37176   1.98914  -1.18764
C     0.28199  -0.00648   0.00843
C     1.42213  -0.70965  -0.74893
C     2.28302  -1.67758   0.00067
O     1.58492  -0.45949  -1.93210
N     0.42840  -0.11679   1.47210
C    -0.71902  -0.38325   1.96656
C    -1.86518  -0.51636   1.00251
C    -2.83470   0.66690   1.12517
C    -1.11966  -0.60706  -0.35331
C    -1.08656  -2.04109  -0.88073
H     1.62670   3.23611  -0.25389
H     2.45184   1.70215   0.22778
H     1.26214   2.43424   1.31089
H     1.66287  -2.40044   0.55164
H     2.86953  -1.12777   0.75388
H     2.95650  -2.19425  -0.69534
H    -0.85117  -0.47708   3.05270
H    -2.42005  -1.44653   1.20999
H    -3.66607   0.55459   0.41246
H    -3.25969   0.72646   2.13960
H    -2.32489   1.61868   0.91029
H    -1.58567   0.04260  -1.10433
H    -0.54486  -2.11677  -1.83482
H    -2.11499  -2.39400  -1.05326
H    -0.61487  -2.72772  -0.15983
