28
Generated by autodE on: 2022-06-16. E = -595.491504 Ha. Imaginary frequency = -353.6 cm-1
C     0.80254   2.30750  -1.28519
C     0.51154   1.60054   0.01474
O    -0.08057   2.18856   0.92914
C     0.93136   0.20821   0.16973
C     1.71866  -0.59270  -0.75041
C     2.11855  -1.97354  -0.28041
O     2.01768  -0.20629  -1.88771
N     0.55857  -0.36208   1.34242
C    -0.39368  -0.76377   1.94005
C    -2.18766  -0.73149   0.70873
C    -2.93663   0.32108   1.49412
C    -1.72745  -0.51284  -0.56727
C    -1.33615  -1.59906  -1.51568
H     0.40609   3.32970  -1.21945
H     1.88393   2.33350  -1.48465
H     0.34095   1.77734  -2.13106
H     1.21888  -2.58970  -0.11760
H     2.66088  -1.93030   0.67658
H     2.74769  -2.44709  -1.04494
H    -0.68061  -1.06875   2.94936
H    -2.36794  -1.77576   0.99658
H    -4.01946   0.24505   1.29416
H    -2.80585   0.20372   2.58191
H    -2.60709   1.33264   1.21686
H    -1.76020   0.50711  -0.96484
H    -0.48935  -1.30853  -2.15584
H    -1.08254  -2.53044  -0.98630
H    -2.17860  -1.82478  -2.19691
