23
Generated by autodE on: 2022-05-25. E = -749.749132 Ha
C     3.35328   0.10415   0.62005
C     2.23079   0.93125   0.06506
O     2.37903   2.02789  -0.44480
N     0.94963   0.37746   0.16581
N     0.80085  -0.91522   0.54958
C    -0.43953  -1.24849   0.45056
C    -0.90241  -2.55607   0.75847
N    -1.33024  -3.61175   0.99239
C    -1.34723  -0.10674   0.03210
C    -2.25913   0.33348   1.15783
F    -2.12096  -0.47016  -1.05364
C    -0.27204   0.94593  -0.42804
C    -0.56293   2.38398  -0.08340
F    -0.14651   0.83528  -1.80444
H     3.46086  -0.82697   0.04355
H     4.27634   0.69189   0.55111
H     3.15743  -0.17617   1.66494
H    -2.88977   1.16858   0.82355
H    -1.67451   0.64856   2.03275
H    -2.90314  -0.50994   1.44671
H    -0.55553   2.53732   1.00287
H    -1.55463   2.64590  -0.47773
H     0.19256   3.02883  -0.54367
