12
Generated by autodE on: 2022-05-25. E = -355.865946 Ha
C     1.69661  -1.11487   0.18624
C     0.67464  -0.05716  -0.01557
F     1.21094   1.15492  -0.31806
C    -0.65915  -0.14270   0.06073
C    -1.50887  -1.32073   0.36772
F    -1.37624   0.98915  -0.16946
H     2.37968  -0.83104   1.00467
H     1.23976  -2.08134   0.43080
H     2.30603  -1.23358  -0.72561
H    -2.12239  -1.12354   1.26310
H    -2.20038  -1.51797  -0.46886
H    -0.90876  -2.22124   0.54561
