43
Generated by autodE on: 2022-06-06. E = -1760.836630 Ha
C     0.84512   3.13697   0.21350
N     0.29770   1.83481  -0.18182
C    -0.97874   1.51038   0.40425
C    -2.00786   2.61258   0.40894
O    -0.64550   1.17932   1.81127
C     0.60714   0.67276   1.79675
O     1.20093   0.39184   2.80206
C     1.02578   0.64206   0.29380
C     2.50948   0.58518   0.02291
C     3.04812   1.23358  -1.10077
C     4.41118   1.14673  -1.38712
C     5.25702   0.40011  -0.56183
C     4.72646  -0.26239   0.54718
C     3.36273  -0.17377   0.83852
C     0.16407  -0.47615  -0.46414
C     0.56245  -0.48788  -1.95453
C     0.47642  -1.90972   0.04902
F     1.60333  -2.38204  -0.51140
F    -0.50366  -2.76766  -0.27507
F     0.67920  -1.99530   1.37295
C    -1.32972   0.09796  -0.22940
C    -2.27205  -0.71581   0.73114
F    -2.89955  -1.70302   0.07549
F    -3.22480   0.06715   1.25806
F    -1.63219  -1.27380   1.75948
C    -2.15537   0.29051  -1.54270
F    -1.66546   1.25631  -2.32661
F    -2.22973  -0.82860  -2.27180
F    -3.41959   0.64622  -1.25202
H     1.86057   3.23868  -0.18139
H     0.88352   3.28537   1.30759
H     0.23384   3.93245  -0.22975
H    -1.66074   3.41390   1.07318
H    -2.13214   3.02048  -0.60135
H    -2.97372   2.25635   0.77614
H     2.39932   1.80446  -1.76407
H     4.81121   1.66239  -2.26296
H     6.32408   0.33165  -0.78576
H     5.37535  -0.85683   1.19429
H     2.96726  -0.70038   1.70401
H     1.62218  -0.73430  -2.05123
H     0.39827   0.48840  -2.41053
H    -0.01178  -1.24435  -2.49973
