25
Generated by autodE on: 2022-06-06. E = -631.292463 Ha
C     3.96727   0.23950   0.43631
C     2.57771   0.04579  -0.02911
O     2.31705  -0.46421  -1.22404
C     0.88624  -0.59075  -1.38423
O     0.45132  -1.05928  -2.43593
C     0.35086  -0.08500  -0.19116
C    -1.06136   0.05177   0.13938
C    -1.57170   1.04621   1.00401
C    -2.94024   1.13640   1.26602
C    -3.84353   0.25531   0.66442
C    -3.35593  -0.72312  -0.20954
C    -1.98997  -0.82852  -0.46564
N     1.45261   0.28697   0.61626
C     1.40094   0.76882   1.99272
H     4.10676   1.24622   0.85686
H     4.22627  -0.49662   1.21581
H     4.64807   0.10443  -0.41330
H    -0.90438   1.77650   1.45907
H    -3.30335   1.91649   1.93998
H    -4.91373   0.33285   0.86919
H    -4.04656  -1.42014  -0.69119
H    -1.62441  -1.60130  -1.14220
H     2.36157   0.56994   2.47960
H     0.61105   0.23301   2.53126
H     1.19774   1.84741   2.01957
