43
Generated by autodE on: 2022-06-06. E = -1760.800062 Ha. Imaginary frequency = -274.2 cm-1
C     0.60829   3.04656  -0.69424
N     0.35776   1.94448   0.22744
C    -0.85523   1.69128   0.80133
C    -1.95060   2.69724   0.89018
O    -0.60208   0.99472   1.97237
C     0.68346   0.49910   1.92253
O     1.14869  -0.10232   2.85939
C     1.20845   0.90124   0.59626
C     2.62041   0.74887   0.20905
C     3.15879   1.32047  -0.96335
C     4.49010   1.10186  -1.31972
C     5.31470   0.29891  -0.52910
C     4.78986  -0.29062   0.62463
C     3.46301  -0.07276   0.99044
C    -0.03464  -0.60150  -0.57792
C     0.56848  -0.33486  -1.94690
C     0.40746  -1.99325  -0.11196
F     1.57457  -2.34267  -0.68945
F    -0.49232  -2.93655  -0.48468
F     0.60870  -2.15187   1.20292
C    -1.36261  -0.07421  -0.30543
C    -2.32809  -0.83664   0.60317
F    -3.04782  -1.74308  -0.10089
F    -3.23150  -0.03837   1.20579
F    -1.71997  -1.50642   1.58679
C    -2.14340   0.48700  -1.49421
F    -1.57737   1.58552  -2.03670
F    -2.27768  -0.40555  -2.49737
F    -3.39270   0.85289  -1.15142
H     1.56583   3.51381  -0.43466
H    -0.18194   3.79230  -0.56428
H     0.62585   2.72850  -1.74307
H    -1.60685   3.54709   1.50237
H    -2.24356   3.06749  -0.09783
H    -2.82174   2.24670   1.37625
H     2.54604   1.92486  -1.62387
H     4.87923   1.56029  -2.23150
H     6.35565   0.12838  -0.81282
H     5.41848  -0.92923   1.24935
H     3.07039  -0.54273   1.88849
H     1.65126  -0.48528  -1.94093
H     0.37125   0.67650  -2.30340
H     0.14001  -1.03656  -2.68100
