18
Generated by autodE on: 2022-05-25. E = -476.525115 Ha
C     3.08488  -0.33125  -0.68786
O     1.66802  -0.26642  -0.53312
C     1.22137   0.35168   0.59518
O     1.99957   0.82410   1.42887
N    -0.11518   0.42936   0.77316
O    -0.75283  -0.18407  -0.34174
C    -2.02078  -0.23316  -0.35898
C    -2.82233   0.31996   0.74549
C    -2.61999  -0.87426  -1.54638
H     3.55051  -0.89523   0.13485
H     3.26376  -0.84955  -1.63875
H     3.52849   0.67546  -0.72535
H    -2.57356   1.38700   0.87426
H    -2.52716  -0.17354   1.68716
H    -3.89389   0.18967   0.55760
H    -3.25165  -1.71665  -1.21628
H    -1.85132  -1.22146  -2.24734
H    -3.29420  -0.15265  -2.03875
