27
Generated by autodE on: 2022-05-25. E = -706.600765 Ha. Imaginary frequency = -387.3 cm-1
C     2.57952  -1.93987  -1.45689
O     1.39572  -1.67207  -0.69673
C     1.44600  -0.59836   0.11168
O     2.44005   0.10966   0.22823
N     0.30387  -0.30553   0.81911
O    -0.68681  -1.19613   0.48996
C    -1.90300  -0.86278   0.86754
C    -2.12262  -0.15337   2.16664
C    -2.92574  -1.84510   0.39563
C    -2.10680   0.79820  -0.41879
C    -0.98717   1.32168  -0.50273
C     0.26640   2.03025  -0.68727
C     0.68349   2.95685   0.41707
O     0.91686   1.87320  -1.71461
H     2.35713  -2.82942  -2.05852
H     3.43438  -2.13820  -0.79366
H     2.81692  -1.08948  -2.11267
H    -1.99352  -0.90374   2.96876
H    -3.15090   0.22660   2.21640
H    -1.40963   0.66037   2.32811
H    -2.66003  -2.24437  -0.59202
H    -2.97661  -2.67712   1.11929
H    -3.91684  -1.37400   0.35793
H    -3.16442   0.74125  -0.64438
H     1.71524   3.29189   0.24780
H     0.00770   3.82896   0.42359
H     0.59308   2.45952   1.39299
