17
Generated by autodE on: 2022-05-29. E = -418.325980 Ha
C     3.14319  -1.25200  -0.31969
C     1.90460  -0.43938  -0.01627
O     2.01042   0.63440   0.61033
C     0.66033  -0.97610  -0.48113
N    -0.54688  -0.39250  -0.29614
C    -1.72440  -1.10625  -0.84110
C    -0.76367   0.76760   0.33724
C    -2.05847   1.29011   0.48162
N    -3.11465   1.77054   0.63135
H     3.63764  -1.51931   0.62855
H     3.85160  -0.62787  -0.88826
H     2.93170  -2.16822  -0.88690
H     0.64419  -1.91863  -1.02088
H    -2.23738  -0.45483  -1.55991
H    -2.40658  -1.35279  -0.01756
H    -1.39427  -2.02202  -1.33841
H     0.10130   1.29203   0.73872
