22
Generated by autodE on: 2022-05-29. E = -574.845901 Ha
C     3.57210   0.71020  -0.26423
O     2.14459   0.74693  -0.36722
C     1.48367  -0.38315  -0.04425
O     2.06030  -1.39918   0.31578
C     0.04229  -0.21226  -0.17886
C    -0.95217  -1.01811   0.25445
C    -0.95883  -2.31498   0.96597
C    -2.24323  -0.21583  -0.04819
C    -2.26206   0.97468   0.93596
C    -1.28016   1.77751   0.51431
C    -0.67414   1.05476  -0.70935
O    -1.85627   0.44717  -1.26351
H     3.92391   1.70467  -0.56310
H     3.88155   0.49443   0.76913
H     3.99018  -0.05595  -0.93385
H    -1.48704  -2.20050   1.92952
H    -1.53059  -3.06303   0.39001
H     0.05366  -2.69352   1.14794
H    -3.16315  -0.80004  -0.16062
H    -2.91356   1.05997   1.80480
H    -0.90640   2.70716   0.94215
H    -0.13349   1.65958  -1.44328
