55
Generated by autodE on: 2022-06-23. E = -1116.620646 Ha
C    -2.29296   0.09902  -2.18365
C    -0.92229   0.33366  -1.62207
O     0.07244   0.28494  -2.32391
C    -0.79026   0.70735  -0.12135
C    -0.32975   2.15758  -0.09286
C    -1.22587   3.19417   0.21146
C    -0.80020   4.52672   0.21464
C     0.52319   4.84448  -0.09688
C     1.41769   3.81836  -0.41988
C     0.99510   2.48836  -0.42395
N    -2.07908   0.55276   0.55824
N    -2.16766  -0.81157   0.94283
C    -3.35651  -1.48801   0.72667
C    -3.39720  -2.89963   0.79090
C    -4.60258  -3.57991   0.60688
C    -5.79133  -2.88852   0.35342
C    -5.75390  -1.48992   0.29255
C    -4.56193  -0.79236   0.48033
C    -0.87066  -1.47756   0.83563
C     0.14638  -0.33154   0.67313
C     0.49661   0.26041   2.04534
C     1.36105  -0.83505  -0.05801
C     2.64792  -0.61974   0.28241
C     3.76792  -1.14919  -0.47770
C     5.08578  -0.95668  -0.22784
C     6.13526  -1.56884  -1.11311
C     5.62317  -0.14013   0.91404
H    -2.75081  -0.78868  -1.72115
H    -2.22038  -0.04366  -3.26947
H    -2.94949   0.94856  -1.94645
H    -2.26837   2.97155   0.43990
H    -1.51331   5.31808   0.45734
H     0.85580   5.88511  -0.09444
H     2.45457   4.05380  -0.67155
H     1.69985   1.70063  -0.68361
H    -2.06067   1.11588   1.41042
H    -2.48821  -3.46673   0.99186
H    -4.60604  -4.67189   0.66088
H    -6.72982  -3.42778   0.20854
H    -6.67090  -0.92751   0.09660
H    -4.54412   0.29535   0.43257
H    -0.64784  -2.08823   1.72362
H    -0.84863  -2.14465  -0.04504
H    -0.40245   0.59334   2.58252
H     1.17265   1.12078   1.96070
H     0.98972  -0.50473   2.66199
H     1.15975  -1.45370  -0.93688
H     2.87771  -0.00829   1.15777
H     3.50132  -1.76321  -1.34650
H     5.69623  -2.15645  -1.93282
H     6.80384  -2.22786  -0.53041
H     6.78283  -0.78817  -1.55127
H     6.27250  -0.76089   1.55650
H     4.84265   0.30427   1.54506
H     6.26167   0.67623   0.53256
