23
Generated by autodE on: 2022-06-23. E = -351.521384 Ha
C     3.71492   0.53920  -0.45660
C     2.56491  -0.15127  -0.29391
C     2.55760  -1.65734  -0.23289
C     1.29528   0.56267  -0.17370
C     0.07747  -0.01192  -0.00734
C    -1.15279   0.74458   0.10617
C    -2.40505   0.24848   0.27182
C    -3.58906   1.16819   0.37225
C    -2.73309  -1.21454   0.36716
H     4.67831   0.03017  -0.54962
H     3.71731   1.63274  -0.50040
H     2.13674  -2.01442   0.72178
H     1.92953  -2.08448  -1.03230
H     3.57310  -2.06487  -0.33654
H     1.35408   1.65661  -0.22475
H     0.01064  -1.10204   0.04447
H    -1.04483   1.83458   0.05013
H    -4.12137   1.01804   1.32877
H    -4.32397   0.94836  -0.42302
H    -3.30093   2.22698   0.29671
H    -3.25240  -1.42829   1.31805
H    -3.43570  -1.50112  -0.43536
H    -1.85498  -1.86976   0.30256
