32
Generated by autodE on: 2022-07-27. E = -765.067322 Ha
C     1.16818  -1.66390  -2.50049
C     1.56531  -0.29583  -2.01027
O     2.44897   0.33484  -2.60251
C     0.93585   0.28911  -0.82054
N    -0.13081  -0.25894  -0.20808
N    -0.90613  -1.20955  -0.61532
C    -1.81785  -1.68898   0.31915
C    -2.90796  -2.42641  -0.19274
C    -3.88334  -2.93371   0.66085
C    -3.79123  -2.72861   2.04397
C    -2.70200  -2.02030   2.56270
C    -1.71488  -1.51179   1.71788
C     1.42709   1.54604  -0.22441
C     0.51783   2.49196   0.29269
C     0.97071   3.65966   0.91124
C     2.34019   3.91578   1.01116
C     3.25375   2.99018   0.49211
C     2.80697   1.81855  -0.11642
H     1.05696  -2.38099  -1.67466
H     1.93257  -2.00377  -3.21266
H     0.19108  -1.61972  -3.00506
H    -0.35447   0.18832   0.69641
H    -2.97328  -2.57505  -1.27235
H    -4.72447  -3.49401   0.24568
H    -4.55494  -3.13074   2.71308
H    -2.60660  -1.87747   3.64181
H    -0.84935  -1.01157   2.15832
H    -0.55756   2.32752   0.18816
H     0.24645   4.37841   1.30164
H     2.69606   4.83245   1.48703
H     4.32704   3.17905   0.57140
H     3.52967   1.09947  -0.50015
