55
Generated by autodE on: 2022-06-23. E = -1116.573420 Ha. Imaginary frequency = -419.6 cm-1
C    -1.46728  -0.84702  -2.60828
C    -0.50548   0.02218  -1.82463
O     0.61602   0.22412  -2.30664
C    -0.92769   0.65356  -0.56365
C    -0.28998   1.87163  -0.04075
C    -1.00175   2.76569   0.79497
C    -0.38511   3.88261   1.35346
C     0.96649   4.14857   1.10282
C     1.68257   3.28424   0.27287
C     1.06865   2.16703  -0.29853
N    -2.09304   0.24920   0.01639
N    -2.41169  -1.04023   0.00085
C    -3.68312  -1.35601   0.49188
C    -3.99116  -2.71314   0.73359
C    -5.25187  -3.07943   1.19745
C    -6.24124  -2.11301   1.42188
C    -5.95036  -0.77131   1.16409
C    -4.68868  -0.38814   0.70182
C    -0.96359  -2.04102   0.84125
C     0.15734  -1.19810   1.01340
C     0.16606  -0.29107   2.21549
C     1.33058  -1.36813   0.20655
C     2.50420  -0.68317   0.34453
C     3.61638  -0.81822  -0.56509
C     4.73781  -0.05072  -0.59815
C     5.80774  -0.28940  -1.62552
C     5.00269   1.09364   0.33942
H    -1.35576  -1.90006  -2.30978
H    -1.18679  -0.75963  -3.66803
H    -2.51958  -0.57050  -2.46749
H    -2.06179   2.61376   1.00834
H    -0.96846   4.55385   1.98824
H     1.44973   5.02210   1.54635
H     2.73868   3.47213   0.06366
H     1.64081   1.51014  -0.94241
H    -2.40759   0.78908   0.82866
H    -3.23568  -3.47759   0.55037
H    -5.46684  -4.13498   1.38119
H    -7.22954  -2.40642   1.78216
H    -6.71571  -0.00574   1.31427
H    -4.50088   0.66200   0.47556
H    -1.55546  -2.26813   1.73064
H    -0.88122  -2.85923   0.12253
H     0.82656   0.57679   2.09342
H    -0.84662   0.08312   2.43572
H     0.50317  -0.84163   3.11238
H     1.24584  -2.08508  -0.61801
H     2.59808   0.03473   1.16141
H     3.51674  -1.60024  -1.32792
H     5.56281  -1.12891  -2.29299
H     5.96823   0.61199  -2.24475
H     6.77868  -0.50178  -1.14175
H     4.20910   1.24933   1.08129
H     5.12373   2.03259  -0.23032
H     5.95424   0.94057   0.87927
