46
Generated by autodE on: 2022-10-08. E = -1409.106953 Ha
C     2.33597   0.47099   3.78025
N     1.62218   0.72035   2.54546
C     2.16941   0.41973   1.35476
O     3.36393   0.15971   1.19121
C     1.22991   0.55554   0.14816
C     1.70859   1.78700  -0.66896
O     2.81528   1.79468  -1.21409
N     0.82335   2.79438  -0.71936
C     0.95157   3.89363  -1.65184
O    -0.11420   0.75611   0.57526
C    -1.04565   0.03423  -0.25178
C    -2.17324   1.02762  -0.64283
C    -3.40532   0.45943  -1.29338
O    -2.13821   2.17894  -0.22849
C    -1.69120  -1.07031   0.59405
C    -2.14415  -2.27529   0.04144
C    -2.75076  -3.24336   0.84717
C    -2.92379  -3.01664   2.21481
C    -2.49134  -1.80833   2.77045
C    -1.88410  -0.84327   1.96513
C    -0.19116  -0.47786  -1.43193
C    -0.14758   0.48475  -2.64467
O    -1.13422   1.25828  -2.78880
O     0.83813   0.40328  -3.41143
C     1.17858  -0.68174  -0.76295
C     1.23385  -2.05244  -0.03894
O     1.12412  -3.05265  -0.79298
O     1.36056  -2.07677   1.21080
H     3.35400   0.87982   3.71979
H     1.80801   0.95589   4.61132
H     2.41354  -0.61004   3.99160
H     0.60953   0.78092   2.56578
H    -0.09936   2.60911  -0.32006
H     0.52868   4.81054  -1.21774
H     2.01097   4.06299  -1.88144
H     0.41639   3.67065  -2.59105
H    -4.10067   0.13871  -0.49976
H    -3.18324  -0.40818  -1.92624
H    -3.89398   1.24526  -1.88401
H    -2.02469  -2.47430  -1.02355
H    -3.08752  -4.18137   0.39940
H    -3.39496  -3.77563   2.84379
H    -2.62698  -1.61495   3.83730
H    -1.55578   0.09881   2.40503
H    -0.55570  -1.43455  -1.82363
H     1.96879  -0.65695  -1.52173
