36
Generated by autodE on: 2022-10-14. E = -953.951042 Ha
C     3.24422  -0.18178   2.76587
N     2.78952  -0.03739   1.39906
C     1.49311   0.21944   1.12390
O     0.59717   0.20852   1.98311
C     1.18566   0.55314  -0.27770
O    -0.04656   0.57932  -0.72094
C    -1.26005   0.16336  -0.48178
C    -2.17521   0.70532  -1.51856
C    -3.61389   0.27067  -1.54074
O    -1.73862   1.49609  -2.35646
C    -1.58674  -0.85967   0.50938
C    -0.75182  -1.98918   0.64430
C    -1.09139  -3.01658   1.52052
C    -2.25438  -2.92677   2.29449
C    -3.07919  -1.80321   2.18086
C    -2.75449  -0.77888   1.29145
C     2.14491   1.13820  -1.23954
O     3.37458   1.12224  -1.02694
N     1.61407   1.66193  -2.36192
C     2.44822   2.26812  -3.37785
H     2.64855  -0.94220   3.29176
H     4.29488  -0.49741   2.76141
H     3.16130   0.76156   3.33369
H     3.45045   0.18110   0.64992
H    -3.72691  -0.80404  -1.34226
H    -4.04070   0.52594  -2.51947
H    -4.17859   0.81211  -0.76411
H     0.15886  -2.06926   0.04744
H    -0.44212  -3.89086   1.60491
H    -2.51369  -3.72951   2.98846
H    -3.98105  -1.72148   2.79157
H    -3.39567   0.09996   1.22332
H     0.60063   1.67492  -2.46467
H     1.81729   2.55584  -4.22757
H     2.96360   3.16725  -3.00085
H     3.21802   1.56400  -3.73051
