36
Generated by autodE on: 2022-10-08. E = -953.956529 Ha
C     2.81709  -3.13657  -1.33150
N     1.90741  -2.14662  -0.79410
C     2.33896  -1.17516   0.04274
O     3.53695  -1.12120   0.40493
C     1.34568  -0.21572   0.52505
O     0.14326  -0.35836  -0.06625
C    -1.01777   0.18964   0.13128
C    -1.37739   0.84977   1.43191
C    -0.93519   0.15924   2.69657
O    -2.17858   1.77226   1.44871
C    -1.97516  -0.02892  -0.93812
C    -3.35714   0.22195  -0.76987
C    -4.24568  -0.01896  -1.81491
C    -3.78454  -0.51336  -3.03983
C    -2.41826  -0.76647  -3.21852
C    -1.52031  -0.52365  -2.18527
C     1.65050   1.04627   1.18902
O     0.78345   1.94596   1.27606
N     2.90431   1.20462   1.65788
C     3.36159   2.47202   2.18397
H     3.31002  -3.70613  -0.52741
H     3.60646  -2.67424  -1.94653
H     2.24845  -3.83452  -1.95804
H     0.93241  -2.16450  -1.07074
H    -0.14394  -0.58692   2.54750
H    -1.82622  -0.34676   3.10448
H    -0.60164   0.91027   3.42585
H    -3.73280   0.59562   0.18063
H    -5.31042   0.17586  -1.66980
H    -4.48698  -0.69781  -3.85566
H    -2.05176  -1.14505  -4.17512
H    -0.45488  -0.70139  -2.33444
H     3.56361   0.46572   1.39682
H     4.30292   2.31579   2.72652
H     3.53696   3.21882   1.38968
H     2.61704   2.88887   2.87737
