10
Generated by autodE on: 2022-10-08. E = -455.051700 Ha
O     2.39573  -0.38493  -0.80730
C     1.94980   0.24265   0.19242
O     2.64508   0.85182   1.05286
C     0.45009   0.28754   0.40448
C    -0.45032  -0.28756  -0.40462
C    -1.94987  -0.24265  -0.19242
O    -2.64510  -0.85230  -1.05258
O    -2.39546   0.38543   0.80714
H     0.10215   0.83579   1.28683
H    -0.10253  -0.83585  -1.28699
