44
Generated by autodE on: 2022-06-20. E = -1050.811817 Ha
C     0.13439   3.43935   1.39113
C     0.28186   2.11288   1.52009
C     0.67763   1.47806   2.82711
C     0.04190   1.22172   0.31212
C     1.22938   0.25403   0.02383
C     1.79072   0.35961  -1.36304
C     3.08255   0.19582  -1.70345
C     3.51446   0.30448  -3.13997
C     4.18516  -0.12917  -0.73429
C     0.64392  -1.19251   0.36247
C     0.45764  -1.99413  -0.87809
N     0.22906  -2.62047  -1.82675
C     1.57604  -1.92945   1.23700
N     2.31955  -2.48020   1.93497
N    -0.60576  -0.92204   1.05076
C    -1.18376   0.27589   0.46723
C    -2.28464   0.86728   1.37873
C    -3.09545   1.99380   0.80915
O    -2.48011   0.40294   2.48256
C    -1.83755   0.00857  -0.91111
O    -1.71456   0.70431  -1.89477
O    -2.56977  -1.10020  -0.86416
C    -3.19266  -1.52764  -2.08798
H     0.29587   4.11388   2.23731
H    -0.15041   3.89117   0.43648
H     0.85327   2.24446   3.59541
H    -0.10098   0.79132   3.19010
H     1.59783   0.87920   2.72587
H    -0.13092   1.86222  -0.55809
H     2.02371   0.43288   0.75281
H     1.06003   0.55484  -2.15419
H     3.99466  -0.63296  -3.47102
H     4.27164   1.09902  -3.25946
H     2.67056   0.52049  -3.81118
H     4.58519  -1.13566  -0.94767
H     5.02682   0.57283  -0.85982
H     3.87056  -0.11247   0.31743
H    -1.24220  -1.71776   1.07920
H    -2.50409   2.64236   0.15043
H    -3.90593   1.55219   0.20279
H    -3.54954   2.57219   1.62394
H    -3.75642  -2.43295  -1.83763
H    -3.86587  -0.74550  -2.46540
H    -2.42133  -1.75160  -2.83831
