21
Generated by autodE on: 2022-07-27. E = -699.254093 Ha
C    -0.90226  -1.46977  -2.74409
O    -0.72179  -1.01283  -1.39371
C    -1.00329   0.26276  -1.13785
O    -1.51260   1.02752  -1.93183
C    -0.66252   0.61815   0.25647
N     0.36693   0.11486   0.92759
C     1.44305  -0.64617   0.65658
C     1.83539  -1.07064  -0.63743
N     2.26187  -1.42225  -1.66304
C     2.30343  -0.97127   1.73791
N     3.01923  -1.25215   2.61349
C    -1.47928   1.53525   1.09766
C    -2.68090   2.20812   0.51557
O    -1.12923   1.69882   2.26529
H    -0.58351  -2.51747  -2.75082
H    -1.95940  -1.38667  -3.03207
H    -0.28163  -0.87641  -3.42990
H     0.31576   0.46319   1.90848
H    -3.35469   1.47100   0.05266
H    -3.20310   2.75953   1.30708
H    -2.36814   2.89832  -0.28279
