21
Generated by autodE on: 2022-06-20. E = -699.253923 Ha
C    -3.54435   0.33496  -1.01868
O    -2.41059  -0.43610  -0.58485
C    -1.35723   0.24473  -0.14952
O    -1.28025   1.45997  -0.14507
C    -0.28174  -0.62214   0.37340
N     0.98583  -0.22277   0.36549
C     1.68556   0.76615  -0.21849
C     3.06242   0.88025   0.10799
N     4.19270   0.99313   0.36779
C     1.18182   1.63181  -1.22058
N     0.87543   2.34313  -2.09098
C    -0.45210  -1.89813   1.12467
C    -1.80796  -2.50603   1.29483
O     0.55916  -2.41120   1.60188
H    -3.26380   0.97820  -1.86448
H    -3.92101   0.95444  -0.19247
H    -4.30104  -0.39482  -1.32642
H     1.54901  -0.89083   0.93273
H    -2.18903  -2.84136   0.31810
H    -1.73087  -3.36050   1.97853
H    -2.52493  -1.76669   1.68129
