44
Generated by autodE on: 2022-06-20. E = -1050.769730 Ha. Imaginary frequency = -407.3 cm-1
C    -0.32427   3.41452   1.84221
C     0.23515   2.19945   1.69364
C     0.90442   1.49736   2.84545
C     0.18635   1.53934   0.35973
C     1.30051   0.76905  -0.09830
C     1.56374   0.58862  -1.48674
C     2.62738  -0.09362  -2.01282
C     2.80355  -0.20049  -3.49530
C     3.70321  -0.72310  -1.18155
C     0.41229  -1.50981   0.70810
C     0.67212  -2.08998  -0.55183
N     0.99960  -2.52316  -1.58634
C     1.29201  -1.89388   1.75389
N     2.03267  -2.17564   2.61123
N    -0.79351  -0.92831   1.07485
C    -1.33879   0.16990   0.44820
C    -2.34875   0.86594   1.34015
C    -3.23033   1.92302   0.75682
O    -2.38927   0.55015   2.51927
C    -1.69293   0.05471  -1.01311
O    -1.86522   0.99490  -1.76164
O    -1.79959  -1.21725  -1.38395
C    -1.97937  -1.47788  -2.78489
H    -0.29736   3.93602   2.80309
H    -0.81380   3.92236   1.00687
H     0.92876   2.14547   3.73249
H     0.36936   0.57487   3.12046
H     1.93842   1.20385   2.60578
H    -0.29780   2.14402  -0.41167
H     2.07939   0.51240   0.61702
H     0.83198   1.00351  -2.18630
H     2.82463  -1.25999  -3.80191
H     3.77570   0.22780  -3.79864
H     2.00316   0.31188  -4.04762
H     3.97374  -1.70850  -1.59158
H     4.61722  -0.10323  -1.22563
H     3.42755  -0.84980  -0.12690
H    -0.96161  -0.89255   2.08318
H    -2.66309   2.61947   0.12664
H    -3.97961   1.43908   0.10768
H    -3.73954   2.45716   1.56822
H    -2.02126  -2.56795  -2.88333
H    -2.91378  -1.02217  -3.14053
H    -1.12787  -1.07592  -3.35195
