26
Generated by autodE on: 2022-06-20. E = -665.521876 Ha
C     4.37162  -0.10183  -0.32187
C     2.88265  -0.30189  -0.20250
O     2.29936  -1.14680  -0.90029
N     2.30514   0.48875   0.74962
N     0.97529   0.37392   0.91214
C     0.57072   0.32367   2.32529
C     0.08850   0.35698  -0.07302
C     0.52359   0.75391  -1.37547
N     0.78379   1.12803  -2.44539
C    -1.33900   0.03263   0.08227
C    -1.75611  -1.05886   0.86843
C    -3.11182  -1.36496   0.97190
C    -4.06238  -0.59446   0.29378
C    -3.65264   0.48003  -0.50304
C    -2.29874   0.78858  -0.61869
H     4.59573   0.25427  -1.34064
H     4.87962  -1.07087  -0.19694
H     4.75437   0.61885   0.41129
H     1.23752   1.01025   2.85904
H     0.72108  -0.69429   2.70928
H    -0.47277   0.62964   2.44356
H    -1.01930  -1.68181   1.37612
H    -3.42694  -2.21665   1.57828
H    -5.12377  -0.83799   0.37860
H    -4.39141   1.07981  -1.03856
H    -1.98051   1.62557  -1.24337
