49
Generated by autodE on: 2022-06-20. E = -1017.026679 Ha. Imaginary frequency = -284.0 cm-1
C    -0.84179   2.92230  -1.87425
C    -0.17704   2.31061  -0.86610
C    -0.20601   2.86568   0.53438
C     0.57338   1.09247  -1.12289
C     1.52696   0.55479  -0.22301
C     2.70729  -0.12462  -0.76287
C     3.94393  -0.16227  -0.21589
C     4.33233   0.50848   1.07212
C     5.06360  -0.88516  -0.91213
N     0.51158  -1.02487   0.61072
C     1.06904  -1.80275   1.57735
C     0.45010  -3.15384   1.87282
O     2.02802  -1.38536   2.23549
N    -0.28061  -1.50832  -0.35315
C     0.28292  -2.47420  -1.30920
C    -1.21598  -0.61546  -0.79955
C    -1.59332  -0.70916  -2.17278
N    -1.91549  -0.71720  -3.29240
C    -2.12478   0.12073   0.09099
C    -2.15696  -0.09429   1.48576
C    -3.03043   0.63084   2.29175
C    -3.88378   1.59225   1.73498
C    -3.87503   1.79925   0.35442
C    -3.01271   1.06663  -0.46304
H    -1.41593   3.83655  -1.70424
H    -0.82986   2.51365  -2.88896
H     0.79520   3.20523   0.84843
H    -0.52404   2.09962   1.25753
H    -0.89577   3.71779   0.60733
H     0.65279   0.78802  -2.16997
H     1.65180   1.06836   0.72980
H     2.56327  -0.61726  -1.72997
H     5.15077   1.22699   0.88907
H     3.50587   1.04353   1.55554
H     4.72412  -0.23340   1.78840
H     5.89802  -0.19708  -1.13697
H     5.48255  -1.67154  -0.25900
H     4.73505  -1.35347  -1.85165
H     0.99917  -3.92992   1.31458
H    -0.60910  -3.21080   1.59130
H     0.57251  -3.36221   2.94441
H    -0.51171  -3.13698  -1.67436
H     0.74541  -1.94978  -2.15958
H     1.04970  -3.06591  -0.80087
H    -1.50111  -0.83108   1.94221
H    -3.04366   0.44475   3.36808
H    -4.55909   2.16520   2.37441
H    -4.54677   2.53312  -0.09645
H    -3.03481   1.22498  -1.54033
