39
Generated by autodE on: 2022-06-17. E = -765.066055 Ha
C    -0.94088   2.97658   0.01088
C    -0.77700   1.89178  -0.75663
C    -0.89436   1.93214  -2.25548
C    -0.47116   0.52981  -0.17311
C     0.90715  -0.05445  -0.64345
C     0.81517  -0.90430  -1.86963
C     1.58592  -0.82232  -2.97004
C     2.70010   0.16766  -3.16773
C     1.35190  -1.74091  -4.13886
N     1.42709  -0.75606   0.56461
C     0.90293  -2.10864   0.74667
N     0.98900   0.07044   1.63532
N    -0.33188   0.50293   1.28606
C    -1.38944   0.03459   2.05761
O    -2.55248   0.08619   1.63498
N    -1.05761  -0.40343   3.29520
C    -2.04015  -1.02620   4.15558
H    -0.85496   2.92146   1.09838
H    -1.16818   3.95007  -0.43366
H    -1.59038   1.15654  -2.61746
H    -1.24832   2.91311  -2.60385
H     0.07604   1.72435  -2.73595
H    -1.28181  -0.15669  -0.46799
H     1.58237   0.79595  -0.80874
H     0.01964  -1.65671  -1.85828
H     3.64179  -0.35997  -3.39766
H     2.87538   0.81554  -2.29957
H     2.48529   0.80943  -4.04015
H     0.53071  -2.44844  -3.95258
H     1.11307  -1.15980  -5.04713
H     2.26478  -2.31651  -4.37182
H     1.24543  -2.48713   1.71869
H    -0.20150  -2.17405   0.71563
H     1.30275  -2.76211  -0.03934
H     1.57774   0.90556   1.61760
H    -0.06700  -0.56961   3.44989
H    -2.95263  -0.41495   4.19735
H    -1.62985  -1.10702   5.17080
H    -2.32526  -2.03730   3.81406
