23
Generated by autodE on: 2022-06-17. E = -351.521383 Ha
C     3.48862   0.83525   1.19617
C     2.52740   0.43334   0.33574
C     2.86009   0.02902  -1.07771
C     1.13265   0.38580   0.76999
C     0.07851   0.00694   0.00439
C    -1.28783  -0.01985   0.48522
C    -2.39392  -0.37749  -0.21503
C    -3.75188  -0.35307   0.42778
C    -2.38391  -0.81966  -1.65076
H     3.24332   1.12820   2.22171
H     4.53969   0.88086   0.89776
H     3.93874   0.11113  -1.27225
H     2.55037  -1.01037  -1.27705
H     2.32737   0.66093  -1.80771
H     0.94360   0.68749   1.80732
H     0.25945  -0.29502  -1.03080
H    -1.42798   0.28538   1.52930
H    -3.70992  -0.02475   1.47667
H    -4.21927  -1.35368   0.39306
H    -4.43345   0.32049  -0.12235
H    -1.38468  -0.82479  -2.10466
H    -3.03343  -0.16362  -2.25689
H    -2.80771  -1.83559  -1.74052
