16
Generated by autodE on: 2022-06-17. E = -413.524095 Ha
C    -3.00760   0.19532   0.90279
N    -2.50670  -0.62020  -0.17903
N    -1.25951  -0.53004  -0.34825
N    -0.41160   0.19322   0.32399
C     0.88301   0.00750  -0.18727
O     1.14257  -0.74437  -1.14203
N     1.80017   0.73740   0.47610
C     3.21109   0.73794   0.15968
H    -2.78626   1.26395   0.73536
H    -4.09175   0.05243   0.97533
H    -2.53412  -0.07623   1.86247
H    -0.84738  -1.09818  -1.11703
H     1.46236   1.31320   1.24048
H     3.38373   0.07351  -0.69508
H     3.55906   1.74927  -0.10471
H     3.81169   0.37920   1.01101
