39
Generated by autodE on: 2022-06-17. E = -764.996725 Ha. Imaginary frequency = -490.2 cm-1
C    -2.60480   1.73206   0.06857
C    -1.30577   1.51580  -0.24083
C    -0.35928   2.67397  -0.44593
C    -0.80659   0.15211  -0.40599
C     0.40713  -0.14847  -1.10571
C     0.35563  -1.21081  -2.12451
C     1.14354  -1.32220  -3.21578
C     2.25198  -0.36795  -3.56492
C     0.95983  -2.45869  -4.18443
N     1.66111  -0.77349   0.24166
C     1.36817  -2.20084   0.36724
N     1.25807  -0.08015   1.29275
N    -0.00817  -0.23446   1.67528
C    -0.44723   0.80810   2.49706
O     0.23459   1.81199   2.76826
N    -1.70146   0.62711   2.95993
C    -2.52365  -0.54837   2.74294
H    -3.30265   0.90217   0.20622
H    -3.00054   2.74572   0.17452
H    -0.03122   2.73907  -1.49675
H     0.54989   2.57367   0.16562
H    -0.84351   3.62406  -0.18011
H    -1.56477  -0.63347  -0.36585
H     1.00302   0.72075  -1.38351
H    -0.41413  -1.97484  -1.97073
H     3.21803  -0.90247  -3.59730
H     2.35284   0.46647  -2.85858
H     2.09928   0.05046  -4.57545
H     0.14237  -3.13111  -3.88448
H     1.88632  -3.05481  -4.26907
H     0.74474  -2.08105  -5.20020
H     1.72392  -2.70946  -0.53489
H     0.30612  -2.44083   0.52287
H     1.93797  -2.58745   1.22759
H     1.61283   0.88423   1.33132
H    -2.09486   1.41327   3.46643
H    -3.48152  -0.39691   3.25686
H    -2.04681  -1.45204   3.15228
H    -2.72768  -0.72371   1.67701
