33
Generated by autodE on: 2022-06-17. E = -765.307175 Ha
C    -0.69253   2.95982  -2.05071
O    -0.43328   2.05474  -0.96496
C    -0.74547   0.77623  -1.15948
O    -1.23446   0.35205  -2.18480
C    -0.39572  -0.07736   0.07040
C     1.10630  -0.01806   0.29286
C     1.64322   0.11451   1.57907
C     3.02830   0.10781   1.77099
C     3.89033  -0.03408   0.68047
C     3.35933  -0.17022  -0.60653
C     1.97637  -0.16278  -0.79819
N    -1.12649   0.56896   1.23031
N    -2.09797  -0.09858   1.59389
C    -2.29341  -1.33930   0.80858
C    -3.58442  -1.22644   0.00394
C    -1.00299  -1.50108  -0.01986
C    -0.11228  -2.61472   0.52351
H    -1.76297   2.96064  -2.30065
H    -0.10802   2.66931  -2.93537
H    -0.38215   3.94955  -1.69738
H     0.97785   0.22373   2.43622
H     3.43335   0.21346   2.78023
H     4.97227  -0.03852   0.83183
H     4.02437  -0.28306  -1.46589
H     1.57142  -0.27751  -1.80684
H    -2.40487  -2.15073   1.54407
H    -3.78016  -2.17767  -0.51267
H    -4.43937  -1.00672   0.66090
H    -3.50717  -0.43075  -0.75237
H    -1.24773  -1.70777  -1.06853
H     0.17049  -2.43132   1.57157
H     0.81145  -2.71967  -0.06315
H    -0.65359  -3.57269   0.48043
