33
Generated by autodE on: 2022-06-17. E = -765.238866 Ha. Imaginary frequency = -505.0 cm-1
C    -2.24618   2.45549  -2.03588
O    -1.62415   1.87140  -0.88406
C    -0.51648   1.14689  -1.09996
O    -0.00371   1.03433  -2.20075
C    -0.05849   0.44577   0.11729
C     1.34521   0.07328   0.36385
C     1.77360  -0.20386   1.67879
C     3.07588  -0.63124   1.93248
C     3.98414  -0.79607   0.88144
C     3.56984  -0.52605  -0.42563
C     2.26747  -0.09648  -0.68809
N    -0.82261   0.72065   1.22804
N    -1.76136   0.25470   1.73993
C    -2.33308  -1.33334   0.53708
C    -3.64049  -0.76102   0.05291
C    -1.25017  -1.52267  -0.32406
C    -0.19719  -2.55622  -0.04980
H    -1.56299   3.16293  -2.52742
H    -2.54224   1.67462  -2.75115
H    -3.13195   2.98243  -1.66303
H     1.08297  -0.07654   2.51428
H     3.38271  -0.83497   2.96109
H     5.00457  -1.13110   1.08047
H     4.26701  -0.65193  -1.25757
H     1.95505   0.09887  -1.71110
H    -2.39167  -1.99500   1.40855
H    -4.17512  -0.22591   0.85411
H    -4.30879  -1.56511  -0.30193
H    -3.48373  -0.06057  -0.78119
H    -1.37329  -1.22322  -1.36941
H     0.05848  -2.59850   1.02054
H    -0.56424  -3.55667  -0.34379
H     0.72654  -2.37173  -0.61579
