43
Generated by autodE on: 2022-06-22. E = -1202.981178 Ha
C     3.29334  -0.28699  -2.68145
O     2.99440   0.09167  -1.32559
C     1.77915  -0.19206  -0.87556
O     0.92076  -0.73835  -1.53178
C     1.61887   0.27767   0.57979
C     2.71929  -0.46753   1.37259
C     3.63685   0.33423   2.23654
O     2.80914  -1.67323   1.23647
N     1.81121   1.73855   0.57734
C     0.67138   2.30156   0.67312
C    -0.52782   1.39159   0.80480
C    -1.54680   1.93584   1.82641
C    -1.27439   1.34297  -0.52729
O    -1.28332   2.30616  -1.28364
C    -2.07118   0.13953  -0.81427
O    -2.97923   0.21061  -1.82130
C    -4.07571   1.11586  -1.64344
C    -1.75648  -1.05611  -0.22634
O    -2.36389  -2.22790  -0.41118
C    -3.71010  -2.31376  -0.89636
C    -0.54026  -1.20229   0.63434
O    -0.17809  -2.31713   0.96534
C     0.16612   0.04133   1.17224
C     0.24607  -0.14360   2.70067
H     3.19236  -1.37476  -2.80115
H     4.32903   0.02379  -2.85706
H     2.61448   0.22751  -3.37584
H     3.07276   1.02106   2.88416
H     4.26617   0.96039   1.58335
H     4.26843  -0.33710   2.83224
H     0.57323   3.39252   0.66145
H    -1.98914   2.86388   1.43604
H    -1.06108   2.16593   2.78350
H    -2.35446   1.21086   1.99717
H    -4.68160   1.05093  -2.55617
H    -4.68415   0.81225  -0.77610
H    -3.72694   2.14949  -1.50872
H    -4.04137  -3.33230  -0.65648
H    -3.75270  -2.15317  -1.98060
H    -4.35449  -1.58445  -0.38328
H    -0.76099  -0.24323   3.12588
H     0.80109  -1.05675   2.94576
H     0.73871   0.71485   3.17594
