26
Generated by autodE on: 2022-06-22. E = -689.460858 Ha
C     3.07549  -0.89454  -0.54249
O     2.10803   0.01447  -1.07855
C     0.87386  -0.01618  -0.49488
C     0.40558   0.98120   0.30734
O     1.01323   2.09819   0.70662
C     2.37344   2.39981   0.37792
C    -0.99580   0.90584   0.85318
O    -1.40155   1.81536   1.56357
C    -1.84459  -0.27011   0.53220
C    -3.22346  -0.31185   1.11475
C    -1.36574  -1.25962  -0.26195
C    -2.18393  -2.46233  -0.61112
C     0.00926  -1.16549  -0.83877
O     0.42876  -2.02987  -1.60659
H     4.00623  -0.72589  -1.10023
H     3.24877  -0.69063   0.52727
H     2.75735  -1.93980  -0.66999
H     2.58234   3.35894   0.86858
H     3.05361   1.63101   0.77143
H     2.50536   2.49970  -0.70713
H    -3.98121  -0.38793   0.31774
H    -3.42908   0.58348   1.71317
H    -3.34904  -1.20123   1.75428
H    -2.50124  -2.99506   0.30041
H    -3.10651  -2.16574  -1.13760
H    -1.62078  -3.15329  -1.24911
