43
Generated by autodE on: 2022-06-22. E = -1202.922362 Ha. Imaginary frequency = -390.1 cm-1
C     2.14926  -2.30927  -2.42216
O     2.28871  -1.43306  -1.29393
C     1.70351  -0.24110  -1.36765
O     1.08729   0.16006  -2.34127
C     1.83666   0.54859  -0.12663
C     2.75079   0.34596   1.02242
C     3.43813  -0.97771   1.19856
O     2.90237   1.25932   1.83274
N     1.20438   1.72318  -0.13857
C     0.34172   2.37165   0.38378
C    -0.89515   1.19147   1.58727
C    -1.04140   2.15214   2.74384
C    -1.96430   1.26527   0.52701
O    -2.77663   2.18691   0.51647
C    -1.97978   0.24431  -0.53426
O    -2.81115   0.48616  -1.59289
C    -4.18648   0.14979  -1.38113
C    -1.21034  -0.87806  -0.42651
O    -1.09597  -1.88586  -1.28762
C    -1.62887  -1.83590  -2.61721
C    -0.36237  -1.11498   0.79970
O     0.13555  -2.23146   0.96024
C    -0.23124  -0.03081   1.77763
C     0.48069  -0.32333   3.05736
H     2.82835  -3.14819  -2.23250
H     2.42703  -1.79286  -3.35091
H     1.11410  -2.66916  -2.48846
H     4.15330  -1.15124   0.38094
H     2.70966  -1.80033   1.16863
H     3.96617  -0.96519   2.16050
H     0.03382   3.42045   0.42962
H    -1.51127   3.08733   2.41544
H    -0.06701   2.38108   3.19605
H    -1.67829   1.70449   3.52464
H    -4.29545  -0.92317  -1.15104
H    -4.71360   0.37685  -2.31748
H    -4.62007   0.74489  -0.56349
H    -1.23109  -2.72619  -3.12021
H    -1.28860  -0.93189  -3.13684
H    -2.72590  -1.88154  -2.60577
H    -0.24184  -0.36364   3.89137
H     1.00626  -1.28359   3.00661
H     1.20417   0.46895   3.30267
