45
Generated by autodE on: 2022-07-27. E = -1035.603045 Ha
C    -2.84124  -1.96326   1.40371
N    -1.51500  -1.37749   1.41026
C    -0.49967  -1.94272   0.70687
O    -0.59572  -3.11196   0.28904
C     0.71654  -1.13741   0.50419
N     0.65181   0.21572   0.31491
C    -0.30779   1.03363  -0.14905
C    -0.11347   2.46698   0.05688
C     0.68993   2.95489   1.11400
C     0.92963   4.32182   1.26019
C     0.35853   5.23940   0.37376
C    -0.45598   4.77327  -0.66691
C    -0.69003   3.41024  -0.82645
C    -1.48601   0.50239  -0.85447
C    -1.35317  -0.51262  -1.82386
C    -2.47065  -0.99802  -2.49866
C    -3.74602  -0.49264  -2.21282
C    -3.88983   0.51277  -1.25316
C    -2.77069   1.00787  -0.58089
C     2.03678  -1.74497   0.47582
C     2.29403  -3.00241   1.08114
C     3.57402  -3.54784   1.09045
C     4.65199  -2.86460   0.50923
C     4.41959  -1.62654  -0.09571
C     3.13498  -1.08080  -0.12660
H    -2.85411  -2.93254   1.92595
H    -3.20434  -2.12781   0.37565
H    -3.53219  -1.28215   1.91526
H    -1.44085  -0.40188   1.67283
H     1.52625   0.70015   0.54123
H     1.10193   2.26377   1.85250
H     1.55113   4.67250   2.08757
H     0.53818   6.30984   0.49602
H    -0.90551   5.48098  -1.36758
H    -1.30699   3.06374  -1.65635
H    -0.36676  -0.92220  -2.04885
H    -2.34801  -1.77761  -3.25412
H    -4.62122  -0.88273  -2.73726
H    -4.88003   0.91098  -1.01976
H    -2.89127   1.78419   0.17674
H     1.47602  -3.54715   1.55204
H     3.73776  -4.51734   1.56825
H     5.65483  -3.29728   0.52196
H     5.24190  -1.08515  -0.57051
H     2.98016  -0.13777  -0.65576
