45
Generated by autodE on: 2022-07-02. E = -1035.611546 Ha
C     5.05942  -1.80051   0.03741
N     3.89935  -0.96416   0.25716
C     2.65230  -1.37331  -0.08394
O     2.46437  -2.51600  -0.57453
C     1.53523  -0.44984   0.09143
N     0.38494  -0.97554  -0.41365
C    -0.90786  -0.63746  -0.42009
C    -1.79288  -1.40000  -1.30381
C    -3.17746  -1.49218  -1.03313
C    -4.01929  -2.24331  -1.85112
C    -3.50829  -2.92955  -2.95936
C    -2.14124  -2.84607  -3.24403
C    -1.29563  -2.08498  -2.43727
C    -1.41755   0.44577   0.43563
C    -2.26119   1.44031  -0.09459
C    -2.69272   2.50484   0.69733
C    -2.29622   2.59202   2.03613
C    -1.47889   1.59563   2.58168
C    -1.04462   0.53293   1.79106
C     1.64008   0.92459   0.59139
C     1.07344   1.99915  -0.12767
C     1.11085   3.29745   0.37590
C     1.72951   3.56263   1.60391
C     2.31857   2.51424   2.31661
C     2.26933   1.20977   1.82050
H     4.91238  -2.79956   0.47537
H     5.93008  -1.33360   0.51525
H     5.28086  -1.93565  -1.03585
H     4.03756  -0.00585   0.55550
H     0.61595  -1.87317  -0.86733
H    -3.58940  -0.98353  -0.16061
H    -5.08466  -2.30225  -1.61518
H    -4.17058  -3.51784  -3.59842
H    -1.73026  -3.36287  -4.11468
H    -0.24129  -2.00051  -2.71016
H    -2.55500   1.38943  -1.14479
H    -3.33235   3.27730   0.26384
H    -2.62576   3.43093   2.65345
H    -1.17271   1.65062   3.62883
H    -0.40229  -0.23537   2.22336
H     0.58990   1.80670  -1.08643
H     0.65328   4.11026  -0.19311
H     1.75290   4.58040   2.00005
H     2.80180   2.70782   3.27739
H     2.69174   0.39333   2.40931
