77
Generated by autodE on: 2022-07-02. E = -4476.576175 Ha. Imaginary frequency = -105.1 cm-1
C    -4.44318   3.29082   2.92833
N    -3.26354   4.12098   2.97386
C    -2.15676   3.85518   2.26973
O    -2.07781   2.87438   1.51056
C    -0.98905   4.79945   2.42622
C     0.37573   4.27572   2.64411
C     0.76723   2.96579   2.30075
C     2.05525   2.50609   2.58268
C     2.99334   3.33750   3.19942
C     2.62610   4.64592   3.53315
C     1.33845   5.10422   3.26828
N    -1.05112   6.09431   2.03216
C    -2.03954   6.98985   1.84275
C    -1.63563   8.40037   1.73016
C    -0.49082   8.89532   2.39535
C    -0.11998  10.23365   2.28670
C    -0.88886  11.12412   1.52723
C    -2.03018  10.65156   0.87234
C    -2.39806   9.30880   0.96786
C    -3.36845   6.54987   1.35611
C    -3.44832   5.68472   0.25028
C    -4.68674   5.25960  -0.23292
C    -5.86712   5.70103   0.37302
C    -5.79744   6.58025   1.45898
C    -4.56004   7.00599   1.94391
C    -2.11907   6.75167   4.55821
C    -1.53677   5.69139   4.81801
C    -0.98065   4.81902   5.88242
C    -0.47584   3.40402   5.48117
O     0.58932   2.94887   5.83318
O    -1.38986   2.71708   4.81281
C    -1.12090   1.33412   4.53290
C    -2.16607   4.51283   6.85359
O    -2.06182   4.49791   8.05960
O    -3.28337   4.23935   6.19975
C    -4.43944   3.89033   6.97446
C     0.16379   5.56280   6.63185
C     0.15976   7.09349   6.58775
C    -1.09298   7.84236   7.10680
C    -1.79809   8.71343   6.06124
C    -2.70560   7.97190   5.08674
F    -3.14329   8.86166   4.13935
Br   -4.43158   7.43783   6.05995
H    -4.63553   2.95579   1.89953
H    -5.30494   3.87365   3.27945
H    -4.33717   2.39779   3.56975
H    -3.22046   4.86681   3.66051
H     0.05057   2.31296   1.80921
H     2.32664   1.48310   2.31044
H     3.99822   2.97131   3.42104
H     3.33888   5.30853   4.02961
H     1.06529   6.10954   3.59650
H    -0.13206   6.53574   2.07327
H     0.09768   8.24378   3.04508
H     0.76562  10.58939   2.81867
H    -0.60369  12.17591   1.45321
H    -2.63950  11.33335   0.27396
H    -3.28544   8.95710   0.44072
H    -2.53174   5.32984  -0.22471
H    -4.72887   4.57996  -1.08735
H    -6.83661   5.36331  -0.00039
H    -6.71387   6.93189   1.93894
H    -4.51062   7.68001   2.79751
H    -1.88554   1.02019   3.81453
H    -0.11956   1.21191   4.10388
H    -1.20111   0.75151   5.46228
H    -4.25446   2.95802   7.52693
H    -4.68577   4.69623   7.67883
H    -5.25070   3.75220   6.25118
H     0.14489   5.20482   7.67079
H     1.10999   5.21823   6.19799
H     1.03167   7.40970   7.18166
H     0.37844   7.41763   5.55870
H    -0.79370   8.51097   7.92727
H    -1.81973   7.14699   7.55554
H    -2.40187   9.49922   6.53812
H    -1.04994   9.22203   5.42925
