50
Generated by autodE on: 2022-06-02. E = -1166.686713 Ha
C     4.49512   1.68624   0.14890
N     3.05510   1.52570   0.09963
C     2.42639   1.07764  -0.98803
O     2.97778   0.82921  -2.06225
C     0.89652   0.82976  -0.83010
C     0.30616   1.30806  -2.10968
N    -0.12802   1.73649  -3.09665
C     0.61099  -0.69747  -0.65071
C     1.77150  -1.55492  -0.09496
C     1.32426  -3.03268  -0.17788
C     0.30148  -3.15741   0.98846
C     0.21710  -1.71531   1.53355
C     1.68880  -1.28809   1.41901
C    -0.47561  -0.79551   0.46576
C    -1.74668  -1.47908  -0.00651
O    -1.89996  -2.06765  -1.05509
O    -2.69686  -1.39697   0.93301
C    -3.99022  -1.92473   0.60531
C    -0.76797   0.68293   0.94275
C    -0.77605   0.86443   2.45838
C    -2.10685   1.16588   0.29348
C    -3.12955   1.89009   1.11463
O    -2.27197   0.97789  -0.90108
N     0.33435   1.47111   0.34334
C     0.15716   2.91748   0.27464
H     4.85006   2.22652  -0.74063
H     5.00717   0.71031   0.18541
H     4.76059   2.25903   1.04592
H     2.49052   1.66279   0.93384
H     0.24829  -1.10612  -1.59869
H     2.73367  -1.36562  -0.58457
H     0.88111  -3.26979  -1.15593
H     2.18479  -3.70064  -0.02920
H    -0.66579  -3.57349   0.67657
H     0.68806  -3.80901   1.78526
H    -0.24960  -1.65026   2.52123
H     1.87286  -0.24660   1.70172
H     2.35721  -1.93758   2.00394
H    -4.62168  -1.74194   1.48205
H    -4.39675  -1.40352  -0.27348
H    -3.92553  -3.00223   0.39857
H    -1.56308   0.25191   2.91722
H    -0.96155   1.91225   2.72810
H     0.19068   0.57689   2.88719
H    -3.98157   2.16087   0.47821
H    -2.69054   2.79784   1.55693
H    -3.46769   1.25706   1.94846
H    -0.09594   3.30783   1.26925
H    -0.63028   3.22896  -0.43739
H     1.09680   3.39130  -0.03980
