50
Generated by autodE on: 2022-06-02. E = -1166.607602 Ha. Imaginary frequency = -245.5 cm-1
C     4.22053   1.41090  -2.33947
N     2.79073   1.44503  -2.10576
C     2.29383   1.47157  -0.85247
O     3.03765   1.53488   0.13434
C     0.80038   1.32114  -0.71644
C     0.11486   1.15585  -1.95769
N    -0.19798   0.94888  -3.06318
C     0.73518  -0.97125  -0.35308
C     1.92481  -1.37778   0.49243
C     1.79465  -2.93145   0.63054
C     0.56473  -3.10206   1.56878
C     0.10593  -1.62998   1.81116
C     1.47670  -0.93111   1.89545
C    -0.40037  -1.13680   0.45670
C    -1.66248  -1.58429  -0.14079
O    -2.00653  -1.40434  -1.30088
O    -2.43132  -2.26221   0.73711
C    -3.65342  -2.81387   0.23316
C    -1.00049   1.26297   0.92678
C    -1.24999   1.34709   2.40658
C    -2.20937   1.26745   0.06497
C    -3.51645   0.80103   0.65370
O    -2.18264   1.76587  -1.05582
N     0.18389   1.75661   0.44972
C     0.91495   2.68812   1.34495
H     4.67832   0.50841  -1.90261
H     4.40015   1.40924  -3.42132
H     4.71746   2.28869  -1.89811
H     2.16327   1.38510  -2.89983
H     0.71503  -1.15087  -1.42797
H     2.90536  -1.03857   0.14182
H     1.66176  -3.41948  -0.34592
H     2.71104  -3.33595   1.08575
H     0.85377  -3.56345   2.52508
H    -0.23330  -3.71477   1.12832
H    -0.58187  -1.49879   2.65422
H     2.11115  -1.34204   2.69450
H     1.42615   0.15458   2.00684
H    -4.31551  -2.02016  -0.14067
H    -4.12372  -3.32917   1.07889
H    -3.44817  -3.52767  -0.57795
H    -1.65233   2.33139   2.70459
H    -1.99616   0.59510   2.68809
H    -0.34252   1.15409   2.98934
H    -4.21903   0.61002  -0.16700
H    -3.92266   1.61405   1.27935
H    -3.42084  -0.08547   1.29037
H     1.57471   3.31582   0.74323
H     0.17299   3.33118   1.82971
H     1.50891   2.17250   2.10764
