49
Generated by autodE on: 2022-06-03. E = -1167.048154 Ha. Imaginary frequency = -166.5 cm-1
C     0.19761   1.65600  -2.26004
N    -0.03037   0.43128  -1.47176
C    -0.74830   0.47103  -0.29960
C    -1.31556   1.71697   0.27234
C    -0.68373   2.98412   0.23046
C    -1.23936   4.09748   0.85967
C    -2.44343   3.99652   1.56198
C    -3.08263   2.75606   1.62516
C    -2.53085   1.64091   0.99552
C    -1.52195  -0.78443  -0.00222
C    -2.50420  -1.14196  -0.94693
C    -3.30889  -2.26364  -0.75771
C    -3.14633  -3.05378   0.38440
C    -2.19515  -2.69251   1.34178
C    -1.39887  -1.55978   1.15789
C     1.25209   0.21285   1.08665
C     2.17017   1.43453   0.89056
C     3.42141   1.18908   1.76009
C     4.09140   0.21385   1.13642
C     3.22965  -0.13104  -0.09459
O     2.70231   1.15981  -0.41940
C     1.94002  -0.80802   0.45735
C     1.85707  -2.18496   0.72490
N     1.82030  -3.33396   0.93479
C     0.62601  -0.68266  -1.92889
C     1.66333  -0.56287  -3.01523
C     0.19975  -2.01066  -1.70009
N    -0.01144  -3.16253  -1.67588
H    -0.63805   2.34128  -2.10469
H     0.22263   1.38877  -3.32057
H     1.14254   2.13653  -1.98311
H     0.26136   3.11962  -0.28493
H    -0.71537   5.05447   0.80246
H    -2.87437   4.87089   2.05472
H    -4.02531   2.64994   2.16730
H    -3.05970   0.69208   1.06399
H    -2.62708  -0.53312  -1.84519
H    -4.06024  -2.52546  -1.50629
H    -3.76498  -3.94204   0.53223
H    -2.06781  -3.29670   2.24290
H    -0.67686  -1.30299   1.92874
H     0.58382   0.13383   1.93758
H     1.71413   2.42455   0.95583
H     3.63031   1.68482   2.70759
H     5.00225  -0.30648   1.43083
H     3.71652  -0.61358  -0.94720
H     2.34780   0.27589  -2.83343
H     2.25533  -1.48740  -3.04197
H     1.21320  -0.43111  -4.01539
